* SPICE3 file created from user_analog_project_wrapper.ext - technology: sky130A

.subckt user_analog_project_wrapper gpio_analog[0] gpio_analog[10] gpio_analog[11]
+ gpio_analog[12] gpio_analog[13] gpio_analog[14] gpio_analog[15] gpio_analog[16]
+ gpio_analog[17] gpio_analog[1] gpio_analog[2] gpio_analog[3] gpio_analog[4] gpio_analog[5]
+ gpio_analog[6] gpio_analog[7] gpio_analog[8] gpio_analog[9] gpio_noesd[0] gpio_noesd[10]
+ gpio_noesd[11] gpio_noesd[12] gpio_noesd[13] gpio_noesd[14] gpio_noesd[15] gpio_noesd[16]
+ gpio_noesd[17] gpio_noesd[1] gpio_noesd[2] gpio_noesd[3] gpio_noesd[4] gpio_noesd[5]
+ gpio_noesd[6] gpio_noesd[7] gpio_noesd[8] gpio_noesd[9] io_analog[0] io_analog[10]
+ io_analog[1] io_analog[2] io_analog[3] io_analog[4] io_analog[5] io_analog[6] io_analog[7]
+ io_analog[8] io_analog[9] io_clamp_high[0] io_clamp_high[1] io_clamp_high[2] io_clamp_low[0]
+ io_clamp_low[1] io_clamp_low[2] io_in[0] io_in[10] io_in[11] io_in[12] io_in[13]
+ io_in[14] io_in[15] io_in[16] io_in[17] io_in[18] io_in[19] io_in[1] io_in[20] io_in[21]
+ io_in[22] io_in[23] io_in[24] io_in[25] io_in[26] io_in[2] io_in[3] io_in[4] io_in[5]
+ io_in[6] io_in[7] io_in[8] io_in[9] io_in_3v3[0] io_in_3v3[10] io_in_3v3[11] io_in_3v3[12]
+ io_in_3v3[13] io_in_3v3[14] io_in_3v3[15] io_in_3v3[16] io_in_3v3[17] io_in_3v3[18]
+ io_in_3v3[19] io_in_3v3[1] io_in_3v3[20] io_in_3v3[21] io_in_3v3[22] io_in_3v3[23]
+ io_in_3v3[24] io_in_3v3[25] io_in_3v3[26] io_in_3v3[2] io_in_3v3[3] io_in_3v3[4]
+ io_in_3v3[5] io_in_3v3[6] io_in_3v3[7] io_in_3v3[8] io_in_3v3[9] io_oeb[0] io_oeb[10]
+ io_oeb[11] io_oeb[12] io_oeb[13] io_oeb[14] io_oeb[15] io_oeb[16] io_oeb[17] io_oeb[18]
+ io_oeb[19] io_oeb[1] io_oeb[20] io_oeb[21] io_oeb[22] io_oeb[23] io_oeb[24] io_oeb[25]
+ io_oeb[26] io_oeb[2] io_oeb[3] io_oeb[4] io_oeb[5] io_oeb[6] io_oeb[7] io_oeb[8]
+ io_oeb[9] io_out[0] io_out[10] io_out[11] io_out[12] io_out[13] io_out[14] io_out[15]
+ io_out[16] io_out[17] io_out[18] io_out[19] io_out[1] io_out[20] io_out[21] io_out[22]
+ io_out[23] io_out[24] io_out[25] io_out[26] io_out[2] io_out[3] io_out[4] io_out[5]
+ io_out[6] io_out[7] io_out[8] io_out[9] la_data_in[0] la_data_in[100] la_data_in[101]
+ la_data_in[102] la_data_in[103] la_data_in[104] la_data_in[105] la_data_in[106]
+ la_data_in[107] la_data_in[108] la_data_in[109] la_data_in[10] la_data_in[110] la_data_in[111]
+ la_data_in[112] la_data_in[113] la_data_in[114] la_data_in[115] la_data_in[116]
+ la_data_in[117] la_data_in[118] la_data_in[119] la_data_in[11] la_data_in[120] la_data_in[121]
+ la_data_in[122] la_data_in[123] la_data_in[124] la_data_in[125] la_data_in[126]
+ la_data_in[127] la_data_in[12] la_data_in[13] la_data_in[14] la_data_in[15] la_data_in[16]
+ la_data_in[17] la_data_in[18] la_data_in[19] la_data_in[1] la_data_in[20] la_data_in[21]
+ la_data_in[22] la_data_in[23] la_data_in[24] la_data_in[25] la_data_in[26] la_data_in[27]
+ la_data_in[28] la_data_in[29] la_data_in[2] la_data_in[30] la_data_in[31] la_data_in[32]
+ la_data_in[33] la_data_in[34] la_data_in[35] la_data_in[36] la_data_in[37] la_data_in[38]
+ la_data_in[39] la_data_in[3] la_data_in[40] la_data_in[41] la_data_in[42] la_data_in[43]
+ la_data_in[44] la_data_in[45] la_data_in[46] la_data_in[47] la_data_in[48] la_data_in[49]
+ la_data_in[4] la_data_in[50] la_data_in[51] la_data_in[52] la_data_in[53] la_data_in[54]
+ la_data_in[55] la_data_in[56] la_data_in[57] la_data_in[58] la_data_in[59] la_data_in[5]
+ la_data_in[60] la_data_in[61] la_data_in[62] la_data_in[63] la_data_in[64] la_data_in[65]
+ la_data_in[66] la_data_in[67] la_data_in[68] la_data_in[69] la_data_in[6] la_data_in[70]
+ la_data_in[71] la_data_in[72] la_data_in[73] la_data_in[74] la_data_in[75] la_data_in[76]
+ la_data_in[77] la_data_in[78] la_data_in[79] la_data_in[7] la_data_in[80] la_data_in[81]
+ la_data_in[82] la_data_in[83] la_data_in[84] la_data_in[85] la_data_in[86] la_data_in[87]
+ la_data_in[88] la_data_in[89] la_data_in[8] la_data_in[90] la_data_in[91] la_data_in[92]
+ la_data_in[93] la_data_in[94] la_data_in[95] la_data_in[96] la_data_in[97] la_data_in[98]
+ la_data_in[99] la_data_in[9] la_data_out[0] la_data_out[100] la_data_out[101] la_data_out[102]
+ la_data_out[103] la_data_out[104] la_data_out[105] la_data_out[106] la_data_out[107]
+ la_data_out[108] la_data_out[109] la_data_out[10] la_data_out[110] la_data_out[111]
+ la_data_out[112] la_data_out[113] la_data_out[114] la_data_out[115] la_data_out[116]
+ la_data_out[117] la_data_out[118] la_data_out[119] la_data_out[11] la_data_out[120]
+ la_data_out[121] la_data_out[122] la_data_out[123] la_data_out[124] la_data_out[125]
+ la_data_out[126] la_data_out[127] la_data_out[12] la_data_out[13] la_data_out[14]
+ la_data_out[15] la_data_out[16] la_data_out[17] la_data_out[18] la_data_out[19]
+ la_data_out[1] la_data_out[20] la_data_out[21] la_data_out[22] la_data_out[23] la_data_out[24]
+ la_data_out[25] la_data_out[26] la_data_out[27] la_data_out[28] la_data_out[29]
+ la_data_out[2] la_data_out[30] la_data_out[31] la_data_out[32] la_data_out[33] la_data_out[34]
+ la_data_out[35] la_data_out[36] la_data_out[37] la_data_out[38] la_data_out[39]
+ la_data_out[3] la_data_out[40] la_data_out[41] la_data_out[42] la_data_out[43] la_data_out[44]
+ la_data_out[45] la_data_out[46] la_data_out[47] la_data_out[48] la_data_out[49]
+ la_data_out[4] la_data_out[50] la_data_out[51] la_data_out[52] la_data_out[53] la_data_out[54]
+ la_data_out[55] la_data_out[56] la_data_out[57] la_data_out[58] la_data_out[59]
+ la_data_out[5] la_data_out[60] la_data_out[61] la_data_out[62] la_data_out[63] la_data_out[64]
+ la_data_out[65] la_data_out[66] la_data_out[67] la_data_out[68] la_data_out[69]
+ la_data_out[6] la_data_out[70] la_data_out[71] la_data_out[72] la_data_out[73] la_data_out[74]
+ la_data_out[75] la_data_out[76] la_data_out[77] la_data_out[78] la_data_out[79]
+ la_data_out[7] la_data_out[80] la_data_out[81] la_data_out[82] la_data_out[83] la_data_out[84]
+ la_data_out[85] la_data_out[86] la_data_out[87] la_data_out[88] la_data_out[89]
+ la_data_out[8] la_data_out[90] la_data_out[91] la_data_out[92] la_data_out[93] la_data_out[94]
+ la_data_out[95] la_data_out[96] la_data_out[97] la_data_out[98] la_data_out[99]
+ la_data_out[9] la_oenb[0] la_oenb[100] la_oenb[101] la_oenb[102] la_oenb[103] la_oenb[104]
+ la_oenb[105] la_oenb[106] la_oenb[107] la_oenb[108] la_oenb[109] la_oenb[10] la_oenb[110]
+ la_oenb[111] la_oenb[112] la_oenb[113] la_oenb[114] la_oenb[115] la_oenb[116] la_oenb[117]
+ la_oenb[118] la_oenb[119] la_oenb[11] la_oenb[120] la_oenb[121] la_oenb[122] la_oenb[123]
+ la_oenb[124] la_oenb[125] la_oenb[126] la_oenb[127] la_oenb[12] la_oenb[13] la_oenb[14]
+ la_oenb[15] la_oenb[16] la_oenb[17] la_oenb[18] la_oenb[19] la_oenb[1] la_oenb[20]
+ la_oenb[21] la_oenb[22] la_oenb[23] la_oenb[24] la_oenb[25] la_oenb[26] la_oenb[27]
+ la_oenb[28] la_oenb[29] la_oenb[2] la_oenb[30] la_oenb[31] la_oenb[32] la_oenb[33]
+ la_oenb[34] la_oenb[35] la_oenb[36] la_oenb[37] la_oenb[38] la_oenb[39] la_oenb[3]
+ la_oenb[40] la_oenb[41] la_oenb[42] la_oenb[43] la_oenb[44] la_oenb[45] la_oenb[46]
+ la_oenb[47] la_oenb[48] la_oenb[49] la_oenb[4] la_oenb[50] la_oenb[51] la_oenb[52]
+ la_oenb[53] la_oenb[54] la_oenb[55] la_oenb[56] la_oenb[57] la_oenb[58] la_oenb[59]
+ la_oenb[5] la_oenb[60] la_oenb[61] la_oenb[62] la_oenb[63] la_oenb[64] la_oenb[65]
+ la_oenb[66] la_oenb[67] la_oenb[68] la_oenb[69] la_oenb[6] la_oenb[70] la_oenb[71]
+ la_oenb[72] la_oenb[73] la_oenb[74] la_oenb[75] la_oenb[76] la_oenb[77] la_oenb[78]
+ la_oenb[79] la_oenb[7] la_oenb[80] la_oenb[81] la_oenb[82] la_oenb[83] la_oenb[84]
+ la_oenb[85] la_oenb[86] la_oenb[87] la_oenb[88] la_oenb[89] la_oenb[8] la_oenb[90]
+ la_oenb[91] la_oenb[92] la_oenb[93] la_oenb[94] la_oenb[95] la_oenb[96] la_oenb[97]
+ la_oenb[98] la_oenb[99] la_oenb[9] user_clock2 user_irq[0] user_irq[1] user_irq[2]
+ vccd1 vccd2 vssa1 vdda2 vssa2 vssd1 vssd2 wb_clk_i wb_rst_i wbs_ack_o wbs_adr_i[0]
+ wbs_adr_i[10] wbs_adr_i[11] wbs_adr_i[12] wbs_adr_i[13] wbs_adr_i[14] wbs_adr_i[15]
+ wbs_adr_i[16] wbs_adr_i[17] wbs_adr_i[18] wbs_adr_i[19] wbs_adr_i[1] wbs_adr_i[20]
+ wbs_adr_i[21] wbs_adr_i[22] wbs_adr_i[23] wbs_adr_i[24] wbs_adr_i[25] wbs_adr_i[26]
+ wbs_adr_i[27] wbs_adr_i[28] wbs_adr_i[29] wbs_adr_i[2] wbs_adr_i[30] wbs_adr_i[31]
+ wbs_adr_i[3] wbs_adr_i[4] wbs_adr_i[5] wbs_adr_i[6] wbs_adr_i[7] wbs_adr_i[8] wbs_adr_i[9]
+ wbs_cyc_i wbs_dat_i[0] wbs_dat_i[10] wbs_dat_i[11] wbs_dat_i[12] wbs_dat_i[13] wbs_dat_i[14]
+ wbs_dat_i[15] wbs_dat_i[16] wbs_dat_i[17] wbs_dat_i[18] wbs_dat_i[19] wbs_dat_i[1]
+ wbs_dat_i[20] wbs_dat_i[21] wbs_dat_i[22] wbs_dat_i[23] wbs_dat_i[24] wbs_dat_i[25]
+ wbs_dat_i[26] wbs_dat_i[27] wbs_dat_i[28] wbs_dat_i[29] wbs_dat_i[2] wbs_dat_i[30]
+ wbs_dat_i[31] wbs_dat_i[3] wbs_dat_i[4] wbs_dat_i[5] wbs_dat_i[6] wbs_dat_i[7] wbs_dat_i[8]
+ wbs_dat_i[9] wbs_dat_o[0] wbs_dat_o[10] wbs_dat_o[11] wbs_dat_o[12] wbs_dat_o[13]
+ wbs_dat_o[14] wbs_dat_o[15] wbs_dat_o[16] wbs_dat_o[17] wbs_dat_o[18] wbs_dat_o[19]
+ wbs_dat_o[1] wbs_dat_o[20] wbs_dat_o[21] wbs_dat_o[22] wbs_dat_o[23] wbs_dat_o[24]
+ wbs_dat_o[25] wbs_dat_o[26] wbs_dat_o[27] wbs_dat_o[28] wbs_dat_o[29] wbs_dat_o[2]
+ wbs_dat_o[30] wbs_dat_o[31] wbs_dat_o[3] wbs_dat_o[4] wbs_dat_o[5] wbs_dat_o[6]
+ wbs_dat_o[7] wbs_dat_o[8] wbs_dat_o[9] wbs_sel_i[0] wbs_sel_i[1] wbs_sel_i[2] wbs_sel_i[3]
+ wbs_stb_i wbs_we_i
C0 divider_1/prescaler_0/tspc_2/Z4 divider_1/prescaler_0/tspc_2/D 0.11fF
C1 pll_full_0/divider_0/prescaler_0/tspc_2/Z2 pll_full_0/divider_0/prescaler_0/tspc_2/Z4 0.36fF
C2 divbuf_18/IN divbuf_18/OUT5 0.00fF
C3 divider_2/prescaler_0/m1_2700_2190# divider_2/prescaler_0/tspc_1/a_630_n680# 0.19fF
C4 divbuf_13/OUT2 divbuf_13/OUT3 1.37fF
C5 ro_complete_0/cbank_0/switch_0/vin ro_complete_0/cbank_0/v 1.30fF
C6 divider_0/mc2 divider_0/prescaler_0/tspc_2/a_630_n680# 0.33fF
C7 divider_0/nor_1/Z1 divider_0/nor_0/B 0.18fF
C8 divbuf_2/OUT4 divbuf_2/OUT 1.11fF
C9 ro_complete_1/cbank_2/switch_3/vin ro_complete_1/a1 0.14fF
C10 divbuf_25/OUT divbuf_25/OUT4 1.11fF
C11 divider_0/nor_1/B divider_0/tspc_0/Z1 0.03fF
C12 divider_0/prescaler_0/tspc_2/Z4 divider_0/clk 0.12fF
C13 pd_0/DIV pd_0/tspc_r_0/Z3 0.65fF
C14 divider_1/prescaler_0/tspc_0/a_630_n680# divider_1/prescaler_0/tspc_0/Z2 0.01fF
C15 divider_1/prescaler_0/tspc_0/a_740_n680# divider_1/prescaler_0/Out 0.21fF
C16 divbuf_5/a_492_n240# divbuf_5/IN 0.13fF
C17 pll_full_0/divider_0/prescaler_0/tspc_0/a_630_n680# pll_full_0/divider_0/prescaler_0/tspc_0/Z2 0.01fF
C18 divider_1/prescaler_0/tspc_2/Z3 divider_1/clk 0.45fF
C19 divbuf_21/OUT2 divbuf_21/OUT5 0.02fF
C20 divbuf_21/OUT3 divbuf_21/OUT4 5.16fF
C21 divbuf_12/a_492_n240# divbuf_12/OUT2 0.42fF
C22 pll_full_0/pd_0/tspc_r_0/Z3 pll_full_0/pd_0/tspc_r_0/Z1 0.09fF
C23 pll_full_0/pd_0/DIV pll_full_0/pd_0/tspc_r_0/Z2 0.19fF
C24 divbuf_24/OUT5 divbuf_24/OUT 43.38fF
C25 pll_full_0/divbuf_1/OUT5 pll_full_0/divbuf_1/a_492_n240# 0.01fF
C26 divbuf_14/OUT divbuf_14/OUT5 43.38fF
C27 ro_complete_1/a5 ro_complete_1/cbank_2/switch_0/vin 0.09fF
C28 divider_2/tspc_1/Q divider_2/tspc_0/Z2 0.14fF
C29 pd_1/DIV pd_1/R 0.51fF
C30 pd_1/tspc_r_0/Z1 pd_1/tspc_r_0/Z2 0.71fF
C31 pd_0/DOWN pd_0/tspc_r_1/Qbar 0.02fF
C32 pd_0/R pd_0/tspc_r_1/Qbar1 0.30fF
C33 divider_2/tspc_1/Q divider_2/tspc_0/Z4 0.15fF
C34 divider_1/tspc_1/Z3 divider_1/nor_0/B 0.38fF
C35 divider_1/prescaler_0/tspc_1/Z3 divider_1/prescaler_0/tspc_1/Z4 0.65fF
C36 pll_full_0/ro_complete_0/a3 pll_full_0/divider_0/clk 0.11fF
C37 divider_2/mc2 divider_2/nor_0/B 0.06fF
C38 divbuf_23/IN divbuf_23/OUT5 0.00fF
C39 pll_full_0/pd_0/tspc_r_0/Z3 pll_full_0/pd_0/R 0.27fF
C40 divider_2/prescaler_0/tspc_2/a_630_n680# divider_2/prescaler_0/tspc_2/Q 0.04fF
C41 pll_full_0/pd_0/tspc_r_0/Z4 pll_full_0/pd_0/tspc_r_0/z5 0.04fF
C42 divbuf_2/OUT3 divbuf_2/OUT5 0.01fF
C43 pll_full_0/pd_0/DIV pll_full_0/divider_0/clk 2.26fF
C44 divider_2/prescaler_0/tspc_0/a_630_n680# divider_2/prescaler_0/tspc_0/Z4 0.12fF
C45 divider_0/prescaler_0/Out divider_0/tspc_2/Z2 0.11fF
C46 divider_0/tspc_0/Z3 divider_0/tspc_0/Z2 0.16fF
C47 divider_0/prescaler_0/tspc_2/Z3 divider_0/prescaler_0/tspc_2/Z4 0.65fF
C48 divider_0/prescaler_0/tspc_0/a_740_n680# divider_0/clk 0.14fF
C49 divider_0/nor_1/Z1 divider_0/and_0/B 0.78fF
C50 pll_full_0/ro_complete_0/a0 pll_full_0/ro_complete_0/cbank_2/switch_5/vin 0.09fF
C51 divider_1/nor_0/B divider_1/tspc_1/Q 0.51fF
C52 divider_1/prescaler_0/tspc_2/Z1 divider_1/prescaler_0/tspc_2/Z4 0.00fF
C53 divider_1/prescaler_0/tspc_1/Z3 divider_1/prescaler_0/tspc_1/Q 0.21fF
C54 divbuf_10/OUT3 divbuf_10/OUT5 0.01fF
C55 divbuf_10/OUT2 divbuf_10/OUT 0.06fF
C56 pll_full_0/divider_0/prescaler_0/tspc_0/Z2 pll_full_0/divider_0/prescaler_0/tspc_0/D 0.09fF
C57 divider_2/tspc_0/Z2 divider_2/nor_0/B 0.20fF
C58 divider_1/and_0/B divider_1/and_0/Z1 0.07fF
C59 pll_full_0/divider_0/and_0/out1 pll_full_0/divider_0/and_0/A 0.01fF
C60 pll_full_0/divider_0/tspc_0/Z1 pll_full_0/divider_0/tspc_0/Z2 1.07fF
C61 divbuf_17/OUT5 divbuf_17/OUT 43.38fF
C62 divider_2/nor_0/B divider_2/tspc_0/Z4 0.02fF
C63 divider_2/prescaler_0/tspc_2/Q divider_2/prescaler_0/nand_1/z1 0.01fF
C64 divider_2/prescaler_0/tspc_2/Z2 divider_2/clk 0.11fF
C65 divider_0/prescaler_0/tspc_0/a_630_n680# divider_0/prescaler_0/tspc_0/Z3 0.05fF
C66 divider_0/prescaler_0/tspc_0/a_740_n680# divider_0/prescaler_0/tspc_0/Z4 0.08fF
C67 ro_complete_0/cbank_1/v ro_complete_0/cbank_2/v 1.36fF
C68 pll_full_0/ro_complete_0/cbank_0/switch_0/vin pll_full_0/ro_complete_0/cbank_0/v 1.30fF
C69 divbuf_4/OUT3 divbuf_4/OUT 0.26fF
C70 divbuf_4/OUT4 divbuf_4/OUT5 20.26fF
C71 cp_0/a_10_n50# cp_0/a_1710_0# 0.04fF
C72 pll_full_0/divbuf_0/IN pll_full_0/divider_0/tspc_0/a_630_n680# 0.04fF
C73 divider_1/tspc_0/Z1 divider_1/tspc_0/Z3 0.06fF
C74 divider_1/prescaler_0/tspc_1/Z4 divider_1/clk 0.12fF
C75 divbuf_17/OUT4 divbuf_17/OUT 1.11fF
C76 divider_2/tspc_1/a_630_n680# divider_2/tspc_1/Z2 0.01fF
C77 divider_2/tspc_2/Q divider_2/tspc_1/Z3 0.45fF
C78 divider_2/prescaler_0/tspc_1/Z2 divider_2/prescaler_0/tspc_1/Z4 0.36fF
C79 divbuf_8/OUT2 divbuf_8/OUT5 0.02fF
C80 divbuf_8/OUT3 divbuf_8/OUT4 5.16fF
C81 io_clamp_low[1] io_clamp_high[1] 0.53fF
C82 divbuf_24/a_492_n240# divbuf_24/OUT2 0.42fF
C83 divider_2/tspc_2/Z3 divider_2/tspc_2/Z4 0.65fF
C84 divider_0/Out divider_0/nor_1/B 0.22fF
C85 divider_0/prescaler_0/m1_2700_2190# divider_0/prescaler_0/tspc_1/Z3 0.33fF
C86 ro_complete_0/cbank_1/switch_1/vin ro_complete_0/cbank_1/switch_0/vin 0.19fF
C87 ro_complete_1/cbank_0/switch_4/vin ro_complete_1/a0 0.13fF
C88 divider_0/and_0/OUT divider_0/and_0/Z1 0.04fF
C89 divider_0/tspc_2/a_630_n680# divider_0/tspc_2/Z2 0.01fF
C90 divider_0/prescaler_0/tspc_2/Q divider_0/clk 0.05fF
C91 pd_0/DOWN pd_0/tspc_r_0/z5 0.03fF
C92 pd_0/tspc_r_0/Z2 pd_0/R 0.21fF
C93 divbuf_5/OUT3 divbuf_5/OUT 0.26fF
C94 divbuf_5/OUT4 divbuf_5/OUT5 20.26fF
C95 pll_full_0/divider_0/tspc_1/Z1 pll_full_0/divider_0/tspc_1/Z2 1.07fF
C96 pll_full_0/divider_0/prescaler_0/Out pll_full_0/divider_0/prescaler_0/m1_2700_2190# 0.11fF
C97 divider_1/nor_1/B divider_1/nor_0/B 0.47fF
C98 divider_1/tspc_1/Z1 divider_1/tspc_1/Z2 1.07fF
C99 divider_1/prescaler_0/Out divider_1/prescaler_0/tspc_1/Z1 0.08fF
C100 pd_1/tspc_r_1/Z4 pd_1/tspc_r_1/z5 0.04fF
C101 divider_1/tspc_2/a_630_n680# divider_1/nor_0/A 0.35fF
C102 divider_1/prescaler_0/tspc_1/Q divider_1/clk 0.60fF
C103 pll_full_0/divider_0/prescaler_0/tspc_1/Q pll_full_0/divider_0/nor_0/A 0.03fF
C104 pll_full_0/divider_0/nor_1/B pll_full_0/divider_0/tspc_0/Z2 0.40fF
C105 divider_2/prescaler_0/tspc_1/Z2 divider_2/prescaler_0/tspc_1/Q 0.06fF
C106 divider_2/prescaler_0/tspc_2/Z2 divider_2/prescaler_0/tspc_2/Z3 0.16fF
C107 divider_0/tspc_1/a_630_n680# divider_0/nor_1/B 0.00fF
C108 divider_0/prescaler_0/m1_2700_2190# divider_0/prescaler_0/nand_0/z1 0.07fF
C109 divider_0/prescaler_0/tspc_0/Z3 divider_0/prescaler_0/tspc_0/D 0.05fF
C110 divbuf_1/OUT2 divbuf_1/a_492_n240# 0.42fF
C111 divbuf_1/OUT5 divbuf_1/OUT 43.38fF
C112 ro_complete_1/cbank_0/switch_1/vin ro_complete_1/cbank_0/switch_2/vin 0.20fF
C113 ro_complete_0/cbank_1/switch_2/vin ro_complete_0/cbank_1/v 1.30fF
C114 pll_full_0/divbuf_1/OUT2 pll_full_0/divbuf_1/OUT3 1.37fF
C115 ro_complete_1/a1 ro_complete_1/cbank_1/v 0.05fF
C116 pll_full_0/divbuf_0/a_492_n240# pll_full_0/divbuf_0/IN 0.13fF
C117 divider_0/and_0/out1 divider_0/and_0/B 0.18fF
C118 pd_0/DOWN pd_0/and_pd_0/Z1 0.07fF
C119 divider_1/mc2 divider_1/nor_0/A 0.04fF
C120 divider_1/tspc_0/Z1 divider_1/tspc_0/Z2 1.07fF
C121 divbuf_19/a_492_n240# divbuf_19/OUT2 0.42fF
C122 divbuf_17/OUT3 divbuf_17/OUT 0.26fF
C123 divbuf_11/OUT3 divbuf_11/OUT5 0.01fF
C124 divbuf_11/OUT2 divbuf_11/OUT 0.06fF
C125 ro_complete_1/cbank_0/switch_0/vin ro_complete_1/a5 0.09fF
C126 pll_full_0/pd_0/tspc_r_1/Z3 pll_full_0/pd_0/UP 0.03fF
C127 divider_0/nor_0/B divider_0/tspc_2/a_630_n680# 0.01fF
C128 divider_0/prescaler_0/tspc_2/Z3 divider_0/prescaler_0/tspc_2/Q 0.05fF
C129 divider_0/prescaler_0/m1_2700_2190# divider_0/clk 0.01fF
C130 ro_complete_0/a0 ro_complete_0/cbank_2/v 0.05fF
C131 pll_full_0/divider_0/nor_0/Z1 pll_full_0/divider_0/nor_0/B 0.06fF
C132 pd_1/tspc_r_0/Z4 pd_1/tspc_r_0/Z3 0.20fF
C133 divbuf_20/a_492_n240# divbuf_20/OUT5 0.01fF
C134 pll_full_0/divider_0/tspc_1/Z2 pll_full_0/divider_0/nor_0/A 0.15fF
C135 pll_full_0/divider_0/prescaler_0/Out pll_full_0/divider_0/tspc_2/Z3 0.45fF
C136 divider_2/prescaler_0/Out divider_2/prescaler_0/tspc_1/Z2 0.19fF
C137 divbuf_16/OUT divbuf_16/OUT3 0.26fF
C138 divider_1/prescaler_0/tspc_0/Z2 divider_1/clk 0.11fF
C139 divider_1/nor_1/B divider_1/and_0/B 0.29fF
C140 divider_2/mc2 divider_2/and_0/out1 0.06fF
C141 divider_2/and_0/OUT divider_2/and_0/B 0.01fF
C142 divbuf_13/OUT2 divbuf_13/OUT5 0.02fF
C143 divbuf_13/OUT3 divbuf_13/OUT4 5.16fF
C144 divider_0/tspc_1/Z1 divider_0/tspc_1/Z3 0.06fF
C145 divider_0/prescaler_0/tspc_0/a_740_n680# divider_0/prescaler_0/tspc_1/Z4 0.01fF
C146 ro_complete_1/a4 ro_complete_1/cbank_2/switch_1/vin 0.09fF
C147 ro_complete_1/cbank_0/switch_3/vin ro_complete_1/cbank_0/v 1.30fF
C148 pll_full_0/ro_complete_0/cbank_1/switch_1/vin pll_full_0/ro_complete_0/cbank_1/switch_0/vin 0.19fF
C149 pd_0/tspc_r_0/Z3 pd_0/tspc_r_0/Qbar1 0.38fF
C150 pll_full_0/divider_0/prescaler_0/tspc_0/a_630_n680# pll_full_0/divider_0/prescaler_0/Out 0.04fF
C151 divider_1/prescaler_0/tspc_0/a_630_n680# divider_1/prescaler_0/Out 0.04fF
C152 pd_1/REF pd_1/tspc_r_1/Z4 0.02fF
C153 pd_1/UP pd_1/tspc_r_1/Qbar 0.21fF
C154 divbuf_21/OUT3 divbuf_21/OUT 0.26fF
C155 divbuf_21/OUT4 divbuf_21/OUT5 20.26fF
C156 divider_1/tspc_0/Z2 divider_1/tspc_0/Z3 0.16fF
C157 divider_1/prescaler_0/tspc_2/Z4 divider_1/clk 0.12fF
C158 divider_2/tspc_1/a_630_n680# divider_2/tspc_1/Z4 0.12fF
C159 divider_2/tspc_1/Z2 divider_2/nor_0/B 0.30fF
C160 divider_2/prescaler_0/tspc_2/a_740_n680# divider_2/prescaler_0/tspc_2/a_630_n680# 0.19fF
C161 divbuf_14/OUT divbuf_14/a_492_n240# 0.00fF
C162 divider_0/prescaler_0/tspc_0/a_740_n680# divider_0/prescaler_0/tspc_1/Q 0.15fF
C163 divider_0/prescaler_0/tspc_0/Z2 divider_0/and_0/OUT 0.06fF
C164 ro_complete_0/a4 ro_complete_0/cbank_2/switch_0/vin 0.12fF
C165 pll_full_0/pd_0/DIV pll_full_0/divider_0/prescaler_0/tspc_1/Q 0.03fF
C166 divbuf_15/OUT3 divbuf_15/OUT4 5.16fF
C167 divbuf_3/OUT2 divbuf_3/OUT3 1.37fF
C168 ro_complete_1/a3 ro_complete_1/cbank_2/switch_2/vin 0.09fF
C169 pd_1/DIV pd_1/tspc_r_0/Z4 0.02fF
C170 divbuf_6/a_492_n240# divbuf_6/OUT 0.00fF
C171 pll_full_0/divider_0/nor_0/Z1 pll_full_0/divider_0/and_0/B 0.18fF
C172 pll_full_0/divider_0/tspc_1/Z2 pll_full_0/divider_0/tspc_1/a_630_n680# 0.01fF
C173 pll_full_0/divider_0/prescaler_0/tspc_1/a_630_n680# pll_full_0/divider_0/prescaler_0/tspc_1/Z2 0.01fF
C174 divider_1/tspc_0/Z4 divider_1/tspc_1/Q 0.15fF
C175 pll_full_0/divider_0/nor_0/A pll_full_0/divider_0/tspc_2/Z1 0.03fF
C176 pll_full_0/divider_0/tspc_2/a_630_n680# pll_full_0/divider_0/tspc_2/Z3 0.05fF
C177 divider_2/prescaler_0/tspc_0/Z3 divider_2/clk 0.64fF
C178 pll_full_0/pd_0/tspc_r_0/Z3 pll_full_0/pd_0/tspc_r_0/Z4 0.20fF
C179 pll_full_0/pd_0/DIV pll_full_0/pd_0/tspc_r_0/z5 0.04fF
C180 divbuf_23/OUT3 divbuf_23/OUT5 0.01fF
C181 divbuf_23/OUT2 divbuf_23/OUT 0.06fF
C182 pll_full_0/pd_0/R pll_full_0/pd_0/REF 0.61fF
C183 divider_0/prescaler_0/tspc_0/a_630_n680# divider_0/clk 0.01fF
C184 ro_complete_1/cbank_0/switch_1/vin ro_complete_1/a3 0.13fF
C185 ro_complete_0/a3 ro_complete_0/cbank_2/v 0.05fF
C186 pll_full_0/divbuf_0/OUT5 pll_full_0/divbuf_0/OUT2 0.02fF
C187 divbuf_3/OUT3 divbuf_3/OUT 0.26fF
C188 ro_complete_1/cbank_2/switch_1/vin ro_complete_1/cbank_2/v 1.30fF
C189 pll_full_0/ro_complete_0/a0 pll_full_0/ro_complete_0/cbank_2/v 0.05fF
C190 pd_0/tspc_r_1/Z4 pd_0/tspc_r_1/z5 0.04fF
C191 divbuf_10/OUT4 divbuf_10/OUT 1.11fF
C192 divider_1/tspc_0/a_630_n680# divider_1/tspc_1/Q 0.01fF
C193 divider_1/prescaler_0/tspc_2/Z3 divider_1/prescaler_0/tspc_2/Z4 0.65fF
C194 divbuf_22/a_492_n240# divbuf_22/OUT5 0.01fF
C195 divider_2/prescaler_0/tspc_0/a_740_n680# divider_2/prescaler_0/tspc_1/Z2 0.01fF
C196 divider_2/prescaler_0/tspc_0/D divider_2/prescaler_0/nand_1/z1 0.21fF
C197 divider_2/nor_0/B divider_2/and_0/A 0.26fF
C198 divider_0/prescaler_0/tspc_0/a_630_n680# divider_0/prescaler_0/tspc_0/Z4 0.12fF
C199 divider_0/prescaler_0/tspc_0/Z1 divider_0/prescaler_0/tspc_0/Z2 1.07fF
C200 divider_0/prescaler_0/tspc_1/Q divider_0/prescaler_0/tspc_2/Q 0.19fF
C201 divider_0/prescaler_0/tspc_2/a_740_n680# divider_0/clk 0.01fF
C202 ro_complete_1/cbank_1/switch_3/vin ro_complete_1/cbank_1/v 1.30fF
C203 divider_1/tspc_0/Z4 divider_1/nor_1/B 0.22fF
C204 divbuf_4/OUT5 divbuf_4/OUT 43.38fF
C205 pll_full_0/divider_0/prescaler_0/tspc_0/a_740_n680# pll_full_0/divider_0/prescaler_0/tspc_0/a_630_n680# 0.19fF
C206 pll_full_0/divider_0/and_0/OUT pll_full_0/divider_0/prescaler_0/tspc_2/D 0.03fF
C207 divbuf_8/OUT3 divbuf_8/OUT 0.26fF
C208 divbuf_8/OUT4 divbuf_8/OUT5 20.26fF
C209 divbuf_17/IN divbuf_17/OUT5 0.00fF
C210 divbuf_17/OUT2 divbuf_17/OUT 0.06fF
C211 ro_complete_0/a3 ro_complete_0/cbank_1/switch_2/vin 0.09fF
C212 divider_0/tspc_1/Z1 divider_0/nor_0/B 0.03fF
C213 divider_0/tspc_1/Z3 divider_0/tspc_1/a_630_n680# 0.05fF
C214 divider_0/tspc_0/a_630_n680# divider_0/nor_1/B 0.35fF
C215 divider_0/prescaler_0/tspc_1/a_630_n680# divider_0/prescaler_0/tspc_1/Z3 0.05fF
C216 divider_0/prescaler_0/m1_2700_2190# divider_0/prescaler_0/tspc_1/Z4 0.08fF
C217 ro_complete_1/cbank_2/switch_3/vin ro_complete_1/cbank_2/switch_4/vin 0.20fF
C218 divbuf_15/OUT divbuf_15/OUT4 1.11fF
C219 divider_0/nor_0/A divider_0/tspc_2/Z2 0.23fF
C220 divider_0/prescaler_0/tspc_0/D divider_0/clk 0.29fF
C221 pd_0/tspc_r_0/Z2 pd_0/tspc_r_0/Z4 0.14fF
C222 pll_full_0/ro_complete_0/a4 pll_full_0/ro_complete_0/cbank_2/switch_0/vin 0.12fF
C223 divider_1/tspc_1/Z2 divider_1/tspc_1/Z3 0.16fF
C224 divider_1/nor_1/B divider_1/tspc_0/a_630_n680# 0.35fF
C225 divider_1/prescaler_0/Out divider_1/prescaler_0/tspc_1/Z3 0.11fF
C226 divbuf_5/OUT5 divbuf_5/OUT 43.38fF
C227 pll_full_0/divider_0/tspc_1/Z2 pll_full_0/divider_0/tspc_1/Z3 0.16fF
C228 pll_full_0/ro_complete_0/a4 pll_full_0/divider_0/clk 0.01fF
C229 pd_1/UP pd_1/and_pd_0/Z1 0.06fF
C230 divbuf_7/a_492_n240# divbuf_7/OUT 0.00fF
C231 divider_2/prescaler_0/Out divider_2/tspc_2/a_630_n680# 0.01fF
C232 divider_1/and_0/OUT divider_1/and_0/Z1 0.04fF
C233 divider_1/tspc_2/a_630_n680# divider_1/tspc_2/Z2 0.01fF
C234 divider_1/prescaler_0/tspc_2/Q divider_1/clk 0.05fF
C235 divider_2/nor_0/B divider_2/tspc_1/Z4 0.21fF
C236 divider_2/prescaler_0/tspc_2/Z2 divider_2/prescaler_0/tspc_2/Z4 0.36fF
C237 ro_complete_0/cbank_1/switch_4/vin ro_complete_0/cbank_1/switch_5/vin 0.20fF
C238 pll_full_0/divbuf_1/OUT3 pll_full_0/divbuf_1/OUT4 5.16fF
C239 divbuf_15/IN divbuf_15/OUT5 0.00fF
C240 divider_0/mc2 divider_0/and_0/out1 0.06fF
C241 divider_0/nor_0/B divider_0/nor_1/B 0.47fF
C242 divider_0/prescaler_0/tspc_1/Z2 divider_0/and_0/OUT 0.06fF
C243 divider_0/prescaler_0/tspc_2/a_740_n680# divider_0/prescaler_0/tspc_2/Z3 0.33fF
C244 divider_0/prescaler_0/m1_2700_2190# divider_0/prescaler_0/tspc_1/Q 0.38fF
C245 divider_0/prescaler_0/tspc_0/Z4 divider_0/prescaler_0/tspc_0/D 0.11fF
C246 divider_0/nor_0/Z1 divider_0/and_0/A 0.80fF
C247 ro_complete_1/a5 ro_complete_1/cbank_2/v 0.08fF
C248 pd_1/tspc_r_0/Z2 pd_1/R 0.21fF
C249 pd_0/R pd_0/and_pd_0/Out1 0.33fF
C250 pd_0/REF pd_0/tspc_r_1/Z4 0.02fF
C251 pd_0/UP pd_0/tspc_r_1/Qbar 0.21fF
C252 pll_full_0/ro_complete_0/a3 pll_full_0/ro_complete_0/cbank_2/v 0.05fF
C253 divider_1/prescaler_0/tspc_0/Z2 divider_1/prescaler_0/tspc_1/Q 0.06fF
C254 divbuf_10/a_492_n240# divbuf_10/IN 0.13fF
C255 pll_full_0/divider_0/tspc_1/Z1 pll_full_0/divider_0/tspc_1/Z4 0.00fF
C256 divbuf_11/OUT4 divbuf_11/OUT 1.11fF
C257 pll_full_0/divider_0/nor_0/A pll_full_0/divider_0/and_0/A 0.01fF
C258 divider_2/tspc_0/Z2 divider_2/tspc_0/Z1 1.07fF
C259 divider_2/nor_0/Z1 divider_2/and_0/A 0.80fF
C260 divider_1/and_0/out1 divider_1/and_0/B 0.18fF
C261 divbuf_9/a_492_n240# divbuf_9/OUT5 0.01fF
C262 divider_2/tspc_0/Z1 divider_2/tspc_0/Z4 0.00fF
C263 pll_full_0/pd_0/tspc_r_1/Z3 pll_full_0/pd_0/tspc_r_1/Z1 0.09fF
C264 pll_full_0/pd_0/REF pll_full_0/pd_0/tspc_r_1/Z2 0.19fF
C265 divider_0/Out divider_0/tspc_0/a_630_n680# 0.04fF
C266 divbuf_15/a_492_n240# divbuf_15/OUT 0.00fF
C267 divider_0/tspc_1/Q divider_0/tspc_0/Z1 0.01fF
C268 divider_0/prescaler_0/tspc_1/a_630_n680# divider_0/clk 0.01fF
C269 divider_0/nor_0/B divider_0/nor_0/A 1.21fF
C270 divbuf_4/a_492_n240# divbuf_4/OUT2 0.42fF
C271 pd_1/DOWN pd_1/UP 0.46fF
C272 pd_1/tspc_r_0/z5 pd_1/tspc_r_0/Qbar1 0.20fF
C273 divider_1/nor_0/B divider_1/tspc_2/a_630_n680# 0.01fF
C274 divider_1/prescaler_0/tspc_2/Z3 divider_1/prescaler_0/tspc_2/Q 0.05fF
C275 divider_1/prescaler_0/Out divider_1/clk 0.51fF
C276 divbuf_20/OUT2 divbuf_20/OUT3 1.37fF
C277 pll_full_0/divider_0/prescaler_0/m1_2700_2190# pll_full_0/divider_0/nor_0/A 0.01fF
C278 pll_full_0/divider_0/prescaler_0/Out pll_full_0/divider_0/tspc_2/Z4 0.12fF
C279 pll_full_0/divider_0/tspc_0/a_630_n680# pll_full_0/divider_0/tspc_0/Z2 0.01fF
C280 divbuf_13/OUT3 divbuf_13/OUT 0.26fF
C281 divbuf_13/OUT4 divbuf_13/OUT5 20.26fF
C282 ro_complete_0/cbank_0/switch_3/vin ro_complete_0/a1 0.14fF
C283 ro_complete_0/cbank_0/switch_1/vin ro_complete_0/cbank_0/v 1.30fF
C284 ro_complete_0/cbank_0/switch_2/vin ro_complete_0/a3 0.09fF
C285 divbuf_15/OUT2 divbuf_15/a_492_n240# 0.42fF
C286 ro_complete_1/a2 ro_complete_1/cbank_2/v 0.05fF
C287 pll_full_0/ro_complete_0/a3 pll_full_0/ro_complete_0/cbank_1/switch_2/vin 0.09fF
C288 divider_1/prescaler_0/m1_2700_2190# divider_1/and_0/OUT 0.14fF
C289 divider_0/and_0/OUT divider_0/and_0/out1 0.31fF
C290 divider_0/nor_1/B divider_0/and_0/B 0.29fF
C291 pd_0/DIV pd_0/tspc_r_0/Z1 0.17fF
C292 pd_0/tspc_r_0/Qbar1 pd_0/DOWN 0.11fF
C293 divbuf_5/a_492_n240# divbuf_5/OUT5 0.01fF
C294 divider_1/mc2 divider_1/nor_0/B 0.06fF
C295 divider_1/prescaler_0/tspc_0/Z1 divider_1/prescaler_0/tspc_0/Z3 0.06fF
C296 pd_1/tspc_r_1/Z3 pd_1/tspc_r_1/z5 0.11fF
C297 pll_full_0/divider_0/prescaler_0/tspc_0/Z1 pll_full_0/divider_0/prescaler_0/tspc_0/Z3 0.06fF
C298 divider_2/prescaler_0/tspc_0/Z3 divider_2/prescaler_0/tspc_1/Q 0.13fF
C299 divbuf_21/OUT5 divbuf_21/OUT 43.38fF
C300 pll_full_0/divider_0/tspc_1/Z4 pll_full_0/divider_0/nor_0/A 0.02fF
C301 pll_full_0/divider_0/nor_0/B pll_full_0/divider_0/tspc_0/Z2 0.20fF
C302 divbuf_12/a_492_n240# divbuf_12/OUT 0.00fF
C303 divider_2/and_0/out1 divider_2/and_0/A 0.01fF
C304 ro_complete_0/cbank_1/switch_1/vin ro_complete_0/cbank_1/v 1.30fF
C305 ro_complete_0/cbank_0/switch_5/vin ro_complete_0/cbank_0/v 1.30fF
C306 divider_0/tspc_1/Z2 divider_0/tspc_1/Z4 0.36fF
C307 divider_0/tspc_1/a_630_n680# divider_0/nor_0/B 0.35fF
C308 divider_0/tspc_1/Q divider_0/nor_1/B 0.22fF
C309 divbuf_3/OUT2 divbuf_3/OUT5 0.02fF
C310 ro_complete_1/cbank_0/switch_5/vin ro_complete_1/a0 0.09fF
C311 pll_full_0/ro_complete_0/cbank_1/switch_4/vin pll_full_0/ro_complete_0/cbank_1/switch_5/vin 0.20fF
C312 divbuf_15/OUT4 divbuf_15/OUT5 20.26fF
C313 divider_0/nor_0/A divider_0/and_0/B 0.08fF
C314 pd_0/R pd_0/tspc_r_1/Z2 0.21fF
C315 divbuf_6/IN divbuf_6/OUT5 0.00fF
C316 divbuf_19/OUT5 divbuf_19/IN 0.00fF
C317 divider_1/tspc_2/Q divider_1/tspc_1/Z4 0.15fF
C318 pll_full_0/divider_0/tspc_1/Z2 pll_full_0/divider_0/nor_0/B 0.30fF
C319 pll_full_0/ro_complete_0/a1 pll_full_0/divider_0/clk 0.11fF
C320 pll_full_0/pd_0/DIV pll_full_0/pd_0/tspc_r_0/Z3 0.65fF
C321 divider_2/prescaler_0/tspc_0/Z4 divider_2/clk 0.12fF
C322 divbuf_11/a_492_n240# divbuf_11/IN 0.13fF
C323 pll_full_0/divider_0/tspc_2/a_630_n680# pll_full_0/divider_0/tspc_2/Z4 0.12fF
C324 pll_full_0/divider_0/tspc_2/Z1 pll_full_0/divider_0/tspc_2/Z2 1.07fF
C325 pll_full_0/divider_0/nor_0/A pll_full_0/divider_0/tspc_2/Z3 0.38fF
C326 divbuf_23/OUT4 divbuf_23/OUT 1.11fF
C327 pll_full_0/pd_0/R pll_full_0/pd_0/tspc_r_1/Qbar1 0.30fF
C328 divbuf_2/IN divbuf_2/a_492_n240# 0.13fF
C329 pll_full_0/divbuf_0/OUT5 pll_full_0/divbuf_0/OUT3 0.01fF
C330 divbuf_25/OUT3 divbuf_25/OUT5 0.01fF
C331 divider_0/prescaler_0/tspc_2/Z2 divider_0/and_0/OUT 0.05fF
C332 divbuf_3/OUT5 divbuf_3/OUT 43.38fF
C333 divider_2/nor_1/B divider_2/tspc_1/a_630_n680# 0.00fF
C334 divider_2/prescaler_0/tspc_0/Z3 divider_2/prescaler_0/Out 0.05fF
C335 pd_1/DOWN pd_1/tspc_r_0/z5 0.03fF
C336 pd_0/UP pd_0/and_pd_0/Z1 0.06fF
C337 divider_1/tspc_2/Q divider_1/tspc_2/Z3 0.05fF
C338 divider_1/mc2 divider_1/and_0/B 0.20fF
C339 pll_full_0/divider_0/tspc_2/Q pll_full_0/divider_0/tspc_2/a_630_n680# 0.04fF
C340 pll_full_0/divider_0/tspc_1/a_630_n680# pll_full_0/divider_0/tspc_1/Z4 0.12fF
C341 pll_full_0/divider_0/prescaler_0/tspc_2/a_630_n680# pll_full_0/divider_0/prescaler_0/tspc_2/Z2 0.01fF
C342 divbuf_18/OUT2 divbuf_18/a_492_n240# 0.42fF
C343 divider_2/mc2 divider_2/nor_0/A 0.04fF
C344 divider_2/tspc_0/Z2 divider_2/tspc_0/Z3 0.16fF
C345 divbuf_22/OUT2 divbuf_22/OUT3 1.37fF
C346 pll_full_0/divider_0/and_0/out1 pll_full_0/divider_0/and_0/Z1 0.36fF
C347 divbuf_18/OUT5 divbuf_18/a_492_n240# 0.01fF
C348 divider_2/prescaler_0/tspc_1/Q divider_2/nor_0/A 0.03fF
C349 divider_2/tspc_0/Z3 divider_2/tspc_0/Z4 0.65fF
C350 divider_0/prescaler_0/tspc_0/Z2 divider_0/prescaler_0/tspc_0/Z3 0.16fF