* SPICE3 file created from user_analog_project_wrapper.ext - technology: sky130A

.subckt user_analog_project_wrapper gpio_analog[0] gpio_analog[10] gpio_analog[11]
+ gpio_analog[12] gpio_analog[13] gpio_analog[14] gpio_analog[15] gpio_analog[16]
+ gpio_analog[17] gpio_analog[1] gpio_analog[2] gpio_analog[3] gpio_analog[4] gpio_analog[5]
+ gpio_analog[6] gpio_analog[7] gpio_analog[8] gpio_analog[9] gpio_noesd[0] gpio_noesd[10]
+ gpio_noesd[11] gpio_noesd[12] gpio_noesd[13] gpio_noesd[14] gpio_noesd[15] gpio_noesd[16]
+ gpio_noesd[17] gpio_noesd[1] gpio_noesd[2] gpio_noesd[3] gpio_noesd[4] gpio_noesd[5]
+ gpio_noesd[6] gpio_noesd[7] gpio_noesd[8] gpio_noesd[9] io_analog[0] io_analog[10]
+ io_analog[1] io_analog[2] io_analog[3] io_analog[4] io_analog[5] io_analog[6] io_analog[7]
+ io_analog[8] io_analog[9] io_clamp_high[0] io_clamp_high[1] io_clamp_high[2] io_clamp_low[0]
+ io_clamp_low[1] io_clamp_low[2] io_in[0] io_in[10] io_in[11] io_in[12] io_in[13]
+ io_in[14] io_in[15] io_in[16] io_in[17] io_in[18] io_in[19] io_in[1] io_in[20] io_in[21]
+ io_in[22] io_in[23] io_in[24] io_in[25] io_in[26] io_in[2] io_in[3] io_in[4] io_in[5]
+ io_in[6] io_in[7] io_in[8] io_in[9] io_in_3v3[0] io_in_3v3[10] io_in_3v3[11] io_in_3v3[12]
+ io_in_3v3[13] io_in_3v3[14] io_in_3v3[15] io_in_3v3[16] io_in_3v3[17] io_in_3v3[18]
+ io_in_3v3[19] io_in_3v3[1] io_in_3v3[20] io_in_3v3[21] io_in_3v3[22] io_in_3v3[23]
+ io_in_3v3[24] io_in_3v3[25] io_in_3v3[26] io_in_3v3[2] io_in_3v3[3] io_in_3v3[4]
+ io_in_3v3[5] io_in_3v3[6] io_in_3v3[7] io_in_3v3[8] io_in_3v3[9] io_oeb[0] io_oeb[10]
+ io_oeb[11] io_oeb[12] io_oeb[13] io_oeb[14] io_oeb[15] io_oeb[16] io_oeb[17] io_oeb[18]
+ io_oeb[19] io_oeb[1] io_oeb[20] io_oeb[21] io_oeb[22] io_oeb[23] io_oeb[24] io_oeb[25]
+ io_oeb[26] io_oeb[2] io_oeb[3] io_oeb[4] io_oeb[5] io_oeb[6] io_oeb[7] io_oeb[8]
+ io_oeb[9] io_out[0] io_out[10] io_out[11] io_out[12] io_out[13] io_out[14] io_out[15]
+ io_out[16] io_out[17] io_out[18] io_out[19] io_out[1] io_out[20] io_out[21] io_out[22]
+ io_out[23] io_out[24] io_out[25] io_out[26] io_out[2] io_out[3] io_out[4] io_out[5]
+ io_out[6] io_out[7] io_out[8] io_out[9] la_data_in[0] la_data_in[100] la_data_in[101]
+ la_data_in[102] la_data_in[103] la_data_in[104] la_data_in[105] la_data_in[106]
+ la_data_in[107] la_data_in[108] la_data_in[109] la_data_in[10] la_data_in[110] la_data_in[111]
+ la_data_in[112] la_data_in[113] la_data_in[114] la_data_in[115] la_data_in[116]
+ la_data_in[117] la_data_in[118] la_data_in[119] la_data_in[11] la_data_in[120] la_data_in[121]
+ la_data_in[122] la_data_in[123] la_data_in[124] la_data_in[125] la_data_in[126]
+ la_data_in[127] la_data_in[12] la_data_in[13] la_data_in[14] la_data_in[15] la_data_in[16]
+ la_data_in[17] la_data_in[18] la_data_in[19] la_data_in[1] la_data_in[20] la_data_in[21]
+ la_data_in[22] la_data_in[23] la_data_in[24] la_data_in[25] la_data_in[26] la_data_in[27]
+ la_data_in[28] la_data_in[29] la_data_in[2] la_data_in[30] la_data_in[31] la_data_in[32]
+ la_data_in[33] la_data_in[34] la_data_in[35] la_data_in[36] la_data_in[37] la_data_in[38]
+ la_data_in[39] la_data_in[3] la_data_in[40] la_data_in[41] la_data_in[42] la_data_in[43]
+ la_data_in[44] la_data_in[45] la_data_in[46] la_data_in[47] la_data_in[48] la_data_in[49]
+ la_data_in[4] la_data_in[50] la_data_in[51] la_data_in[52] la_data_in[53] la_data_in[54]
+ la_data_in[55] la_data_in[56] la_data_in[57] la_data_in[58] la_data_in[59] la_data_in[5]
+ la_data_in[60] la_data_in[61] la_data_in[62] la_data_in[63] la_data_in[64] la_data_in[65]
+ la_data_in[66] la_data_in[67] la_data_in[68] la_data_in[69] la_data_in[6] la_data_in[70]
+ la_data_in[71] la_data_in[72] la_data_in[73] la_data_in[74] la_data_in[75] la_data_in[76]
+ la_data_in[77] la_data_in[78] la_data_in[79] la_data_in[7] la_data_in[80] la_data_in[81]
+ la_data_in[82] la_data_in[83] la_data_in[84] la_data_in[85] la_data_in[86] la_data_in[87]
+ la_data_in[88] la_data_in[89] la_data_in[8] la_data_in[90] la_data_in[91] la_data_in[92]
+ la_data_in[93] la_data_in[94] la_data_in[95] la_data_in[96] la_data_in[97] la_data_in[98]
+ la_data_in[99] la_data_in[9] la_data_out[0] la_data_out[100] la_data_out[101] la_data_out[102]
+ la_data_out[103] la_data_out[104] la_data_out[105] la_data_out[106] la_data_out[107]
+ la_data_out[108] la_data_out[109] la_data_out[10] la_data_out[110] la_data_out[111]
+ la_data_out[112] la_data_out[113] la_data_out[114] la_data_out[115] la_data_out[116]
+ la_data_out[117] la_data_out[118] la_data_out[119] la_data_out[11] la_data_out[120]
+ la_data_out[121] la_data_out[122] la_data_out[123] la_data_out[124] la_data_out[125]
+ la_data_out[126] la_data_out[127] la_data_out[12] la_data_out[13] la_data_out[14]
+ la_data_out[15] la_data_out[16] la_data_out[17] la_data_out[18] la_data_out[19]
+ la_data_out[1] la_data_out[20] la_data_out[21] la_data_out[22] la_data_out[23] la_data_out[24]
+ la_data_out[25] la_data_out[26] la_data_out[27] la_data_out[28] la_data_out[29]
+ la_data_out[2] la_data_out[30] la_data_out[31] la_data_out[32] la_data_out[33] la_data_out[34]
+ la_data_out[35] la_data_out[36] la_data_out[37] la_data_out[38] la_data_out[39]
+ la_data_out[3] la_data_out[40] la_data_out[41] la_data_out[42] la_data_out[43] la_data_out[44]
+ la_data_out[45] la_data_out[46] la_data_out[47] la_data_out[48] la_data_out[49]
+ la_data_out[4] la_data_out[50] la_data_out[51] la_data_out[52] la_data_out[53] la_data_out[54]
+ la_data_out[55] la_data_out[56] la_data_out[57] la_data_out[58] la_data_out[59]
+ la_data_out[5] la_data_out[60] la_data_out[61] la_data_out[62] la_data_out[63] la_data_out[64]
+ la_data_out[65] la_data_out[66] la_data_out[67] la_data_out[68] la_data_out[69]
+ la_data_out[6] la_data_out[70] la_data_out[71] la_data_out[72] la_data_out[73] la_data_out[74]
+ la_data_out[75] la_data_out[76] la_data_out[77] la_data_out[78] la_data_out[79]
+ la_data_out[7] la_data_out[80] la_data_out[81] la_data_out[82] la_data_out[83] la_data_out[84]
+ la_data_out[85] la_data_out[86] la_data_out[87] la_data_out[88] la_data_out[89]
+ la_data_out[8] la_data_out[90] la_data_out[91] la_data_out[92] la_data_out[93] la_data_out[94]
+ la_data_out[95] la_data_out[96] la_data_out[97] la_data_out[98] la_data_out[99]
+ la_data_out[9] la_oenb[0] la_oenb[100] la_oenb[101] la_oenb[102] la_oenb[103] la_oenb[104]
+ la_oenb[105] la_oenb[106] la_oenb[107] la_oenb[108] la_oenb[109] la_oenb[10] la_oenb[110]
+ la_oenb[111] la_oenb[112] la_oenb[113] la_oenb[114] la_oenb[115] la_oenb[116] la_oenb[117]
+ la_oenb[118] la_oenb[119] la_oenb[11] la_oenb[120] la_oenb[121] la_oenb[122] la_oenb[123]
+ la_oenb[124] la_oenb[125] la_oenb[126] la_oenb[127] la_oenb[12] la_oenb[13] la_oenb[14]
+ la_oenb[15] la_oenb[16] la_oenb[17] la_oenb[18] la_oenb[19] la_oenb[1] la_oenb[20]
+ la_oenb[21] la_oenb[22] la_oenb[23] la_oenb[24] la_oenb[25] la_oenb[26] la_oenb[27]
+ la_oenb[28] la_oenb[29] la_oenb[2] la_oenb[30] la_oenb[31] la_oenb[32] la_oenb[33]
+ la_oenb[34] la_oenb[35] la_oenb[36] la_oenb[37] la_oenb[38] la_oenb[39] la_oenb[3]
+ la_oenb[40] la_oenb[41] la_oenb[42] la_oenb[43] la_oenb[44] la_oenb[45] la_oenb[46]
+ la_oenb[47] la_oenb[48] la_oenb[49] la_oenb[4] la_oenb[50] la_oenb[51] la_oenb[52]
+ la_oenb[53] la_oenb[54] la_oenb[55] la_oenb[56] la_oenb[57] la_oenb[58] la_oenb[59]
+ la_oenb[5] la_oenb[60] la_oenb[61] la_oenb[62] la_oenb[63] la_oenb[64] la_oenb[65]
+ la_oenb[66] la_oenb[67] la_oenb[68] la_oenb[69] la_oenb[6] la_oenb[70] la_oenb[71]
+ la_oenb[72] la_oenb[73] la_oenb[74] la_oenb[75] la_oenb[76] la_oenb[77] la_oenb[78]
+ la_oenb[79] la_oenb[7] la_oenb[80] la_oenb[81] la_oenb[82] la_oenb[83] la_oenb[84]
+ la_oenb[85] la_oenb[86] la_oenb[87] la_oenb[88] la_oenb[89] la_oenb[8] la_oenb[90]
+ la_oenb[91] la_oenb[92] la_oenb[93] la_oenb[94] la_oenb[95] la_oenb[96] la_oenb[97]
+ la_oenb[98] la_oenb[99] la_oenb[9] user_clock2 user_irq[0] user_irq[1] user_irq[2]
+ vccd1 vccd2 vdda1 vdda2 vssa1 vssa2 vssd1 vssd2 wb_clk_i wb_rst_i wbs_ack_o wbs_adr_i[0]
+ wbs_adr_i[10] wbs_adr_i[11] wbs_adr_i[12] wbs_adr_i[13] wbs_adr_i[14] wbs_adr_i[15]
+ wbs_adr_i[16] wbs_adr_i[17] wbs_adr_i[18] wbs_adr_i[19] wbs_adr_i[1] wbs_adr_i[20]
+ wbs_adr_i[21] wbs_adr_i[22] wbs_adr_i[23] wbs_adr_i[24] wbs_adr_i[25] wbs_adr_i[26]
+ wbs_adr_i[27] wbs_adr_i[28] wbs_adr_i[29] wbs_adr_i[2] wbs_adr_i[30] wbs_adr_i[31]
+ wbs_adr_i[3] wbs_adr_i[4] wbs_adr_i[5] wbs_adr_i[6] wbs_adr_i[7] wbs_adr_i[8] wbs_adr_i[9]
+ wbs_cyc_i wbs_dat_i[0] wbs_dat_i[10] wbs_dat_i[11] wbs_dat_i[12] wbs_dat_i[13] wbs_dat_i[14]
+ wbs_dat_i[15] wbs_dat_i[16] wbs_dat_i[17] wbs_dat_i[18] wbs_dat_i[19] wbs_dat_i[1]
+ wbs_dat_i[20] wbs_dat_i[21] wbs_dat_i[22] wbs_dat_i[23] wbs_dat_i[24] wbs_dat_i[25]
+ wbs_dat_i[26] wbs_dat_i[27] wbs_dat_i[28] wbs_dat_i[29] wbs_dat_i[2] wbs_dat_i[30]
+ wbs_dat_i[31] wbs_dat_i[3] wbs_dat_i[4] wbs_dat_i[5] wbs_dat_i[6] wbs_dat_i[7] wbs_dat_i[8]
+ wbs_dat_i[9] wbs_dat_o[0] wbs_dat_o[10] wbs_dat_o[11] wbs_dat_o[12] wbs_dat_o[13]
+ wbs_dat_o[14] wbs_dat_o[15] wbs_dat_o[16] wbs_dat_o[17] wbs_dat_o[18] wbs_dat_o[19]
+ wbs_dat_o[1] wbs_dat_o[20] wbs_dat_o[21] wbs_dat_o[22] wbs_dat_o[23] wbs_dat_o[24]
+ wbs_dat_o[25] wbs_dat_o[26] wbs_dat_o[27] wbs_dat_o[28] wbs_dat_o[29] wbs_dat_o[2]
+ wbs_dat_o[30] wbs_dat_o[31] wbs_dat_o[3] wbs_dat_o[4] wbs_dat_o[5] wbs_dat_o[6]
+ wbs_dat_o[7] wbs_dat_o[8] wbs_dat_o[9] wbs_sel_i[0] wbs_sel_i[1] wbs_sel_i[2] wbs_sel_i[3]
+ wbs_stb_i wbs_we_i
C0 ro_complete_buffered_0/tapered_buf_7/in ro_complete_buffered_0/tapered_buf_7/in1 0.19fF
C1 divider_buffered_0/divider_0/tspc_1/Z3 divider_buffered_0/divider_0/tspc_1/a_630_n680# 0.05fF
C2 pd_buffered_0/tapered_buf_3/in4 pd_buffered_0/tapered_buf_3/in5 29.21fF
C3 pll_full_buffered1_0/pll_full_0/divider_0/nor_0/B pll_full_buffered1_0/pll_full_0/divider_0/and_0/B 0.29fF
C4 div_pd_buffered_0/pd_0/tspc_r_0/Qbar div_pd_buffered_0/pd_0/DOWN 0.02fF
C5 pll_full_buffered2_0/pll_full_0/divider_0/prescaler_0/Out pll_full_buffered2_0/pll_full_0/divider_0/nor_1/A 0.15fF
C6 pll_full_buffered2_0/pll_full_0/ro_complete_0/cbank_0/switch_5/vin pll_full_buffered2_0/pll_full_0/ro_complete_0/a0 0.09fF
C7 ro_divider_buffered_0/ro_complete_0/cbank_1/switch_4/vin ro_divider_buffered_0/divider_0/clk 1.30fF
C8 pll_full_buffered1_0/pll_full_0/ref pll_full_buffered1_0/pll_full_0/pd_0/tspc_r_0/Z3 0.65fF
C9 div_pd_buffered_0/divider_0/tspc_1/Z2 div_pd_buffered_0/divider_0/nor_1/A 0.15fF
C10 pll_full_buffered2_0/pll_full_0/divider_0/prescaler_0/tspc_2/Z1 pll_full_buffered2_0/pll_full_0/divider_0/prescaler_0/tspc_2/Z4 0.00fF
C11 pll_full_buffered2_0/pll_full_0/divider_0/prescaler_0/tspc_1/Z3 pll_full_buffered2_0/pll_full_0/divider_0/prescaler_0/tspc_1/Q 0.21fF
C12 ro_divider_buffered_0/tapered_buf_3/in4 ro_divider_buffered_0/tapered_buf_3/in5 29.21fF
C13 ro_complete_buffered_0/tapered_buf_4/in1 ro_complete_buffered_0/tapered_buf_4/in2 0.37fF
C14 divider_buffered_0/divider_0/prescaler_0/m1_2700_2190# divider_buffered_0/divider_0/prescaler_0/nand_0/z1 0.07fF
C15 pll_full_buffered2_0/pll_full_0/divider_0/and_0/B pll_full_buffered2_0/pll_full_0/divider_0/and_0/Z1 0.07fF
C16 pll_full_buffered1_0/pll_full_0/ro_complete_0/cbank_1/switch_4/vin pll_full_buffered1_0/pll_full_0/ro_complete_0/cbank_1/switch_5/vin 0.20fF
C17 ro_divider_buffered_0/divider_0/prescaler_0/tspc_2/a_740_n680# ro_divider_buffered_0/divider_0/prescaler_0/tspc_2/Q 0.20fF
C18 ro_divider_buffered_0/divider_0/prescaler_0/tspc_2/Z2 ro_divider_buffered_0/divider_0/prescaler_0/tspc_2/D 0.09fF
C19 pll_full_buffered1_0/tapered_buf_0/in4 pll_full_buffered1_0/tapered_buf_0/in5 29.21fF
C20 pll_full_buffered1_0/pll_full_0/divider_0/nor_1/A pll_full_buffered1_0/pll_full_0/divider_0/and_0/B 0.08fF
C21 pll_full_buffered1_0/pll_full_0/divider_0/prescaler_0/tspc_2/a_740_n680# pll_full_buffered1_0/pll_full_0/divider_0/prescaler_0/tspc_2/Q 0.20fF
C22 pll_full_buffered1_0/pll_full_0/divider_0/prescaler_0/tspc_2/Z2 pll_full_buffered1_0/pll_full_0/divider_0/prescaler_0/tspc_2/D 0.09fF
C23 pll_full_buffered1_0/pll_full_0/divider_0/prescaler_0/tspc_0/Z4 pll_full_buffered1_0/pll_full_0/vco 0.12fF
C24 ro_complete_buffered_0/tapered_buf_6/in5 ro_complete_buffered_0/ro_complete_0/a4 26.29fF
C25 ro_complete_buffered_0/tapered_buf_5/in5 ro_complete_buffered_0/ro_complete_0/a3 26.29fF
C26 divider_buffered_0/divider_0/prescaler_0/tspc_1/Z3 divider_buffered_0/divider_0/prescaler_0/m1_2700_2190# 0.33fF
C27 pll_full_buffered1_0/pll_full_0/pd_0/tspc_r_0/Qbar pll_full_buffered1_0/pll_full_0/pd_0/DOWN 0.02fF
C28 pll_full_buffered1_0/pll_full_0/pd_0/tspc_r_0/Qbar1 pll_full_buffered1_0/pll_full_0/pd_0/R 0.30fF
C29 pll_full_buffered2_0/pll_full_0/divider_0/tspc_0/Z1 pll_full_buffered2_0/pll_full_0/divider_0/tspc_0/Z3 0.06fF
C30 pll_full_buffered2_0/pll_full_0/divider_0/prescaler_0/tspc_1/Z4 pll_full_buffered2_0/pll_full_0/vco 0.12fF
C31 pll_full_buffered2_0/tapered_buf_5/in3 pll_full_buffered2_0/tapered_buf_5/in4 4.78fF
C32 divider_buffered_0/divider_0/prescaler_0/tspc_2/Z1 divider_buffered_0/divider_0/prescaler_0/tspc_2/D 0.15fF
C33 divider_buffered_0/divider_0/prescaler_0/m1_2700_2190# divider_buffered_0/divider_0/clk 0.01fF
C34 div_pd_buffered_0/divider_0/and_0/out1 div_pd_buffered_0/divider_0/and_0/A 0.01fF
C35 div_pd_buffered_0/divider_0/tspc_0/Z3 div_pd_buffered_0/divider_0/tspc_0/Q 0.05fF
C36 pd_buffered_0/pd_0/tspc_r_0/Z4 pd_buffered_0/pd_0/tspc_r_1/Z4 0.02fF
C37 pll_full_buffered1_0/pll_full_0/divider_0/nor_1/A pll_full_buffered1_0/pll_full_0/divider_0/tspc_0/Q 0.55fF
C38 ro_divider_buffered_0/divider_0/prescaler_0/tspc_2/Q ro_divider_buffered_0/divider_0/prescaler_0/tspc_0/D 0.04fF
C39 ro_divider_buffered_0/divider_0/prescaler_0/tspc_1/Q ro_divider_buffered_0/divider_0/prescaler_0/nand_1/z1 0.22fF
C40 ro_divider_buffered_0/tapered_buf_0/in5 ro_divider_buffered_0/tapered_buf_0/in4 29.21fF
C41 pll_full_buffered2_0/tapered_buf_3/in pll_full_buffered2_0/pll_full_0/pd_0/R 0.36fF
C42 pll_full_buffered2_0/pll_full_0/pd_0/tspc_r_1/Z1 pll_full_buffered2_0/pll_full_0/pd_0/tspc_r_1/Z2 0.71fF
C43 pll_full_buffered2_0/pll_full_0/pd_0/tspc_r_1/Z3 pll_full_buffered2_0/pll_full_0/pd_0/tspc_r_1/Z4 0.20fF
C44 pd_buffered_0/tapered_buf_2/in3 pd_buffered_0/tapered_buf_2/in5 2.89fF
C45 pll_full_buffered1_0/pll_full_0/divider_0/tspc_1/Q pll_full_buffered1_0/pll_full_0/divider_0/nor_0/B 0.22fF
C46 pll_full_buffered1_0/pll_full_0/divider_0/prescaler_0/tspc_2/Q pll_full_buffered1_0/pll_full_0/divider_0/prescaler_0/tspc_0/D 0.04fF
C47 pll_full_buffered1_0/pll_full_0/divider_0/prescaler_0/tspc_1/Q pll_full_buffered1_0/pll_full_0/divider_0/prescaler_0/nand_1/z1 0.22fF
C48 ro_complete_buffered_0/ro_complete_0/a2 ro_complete_buffered_0/ro_complete_0/cbank_0/switch_2/vin 0.14fF
C49 ro_complete_buffered_0/ro_complete_0/cbank_0/switch_1/vin ro_complete_buffered_0/ro_complete_0/a4 0.09fF
C50 ro_complete_buffered_0/ro_complete_0/cbank_0/switch_0/vin ro_complete_buffered_0/ro_complete_0/a5 0.09fF
C51 pll_full_buffered2_0/tapered_buf_4/in5 pll_full_buffered2_0/tapered_buf_4/in1 0.22fF
C52 pll_full_buffered2_0/pll_full_0/ro_complete_0/cbank_0/switch_1/vin pll_full_buffered2_0/pll_full_0/ro_complete_0/a3 0.13fF
C53 cp_buffered_0/tapered_buf_2/in2 cp_buffered_0/tapered_buf_2/in3 1.27fF
C54 div_pd_buffered_0/tapered_buf_4/in3 div_pd_buffered_0/tapered_buf_4/in5 2.89fF
C55 ro_divider_buffered_0/tapered_buf_0/in5 ro_divider_buffered_0/tapered_buf_0/in3 2.89fF
C56 pll_full_buffered2_0/pll_full_0/divider_0/tspc_1/Z2 pll_full_buffered2_0/pll_full_0/divider_0/tspc_1/a_630_n680# 0.01fF
C57 pll_full_buffered2_0/pll_full_0/divider_0/prescaler_0/tspc_1/Z1 pll_full_buffered2_0/pll_full_0/divider_0/prescaler_0/tspc_1/Z2 1.07fF
C58 pll_full_buffered2_0/pll_full_0/divider_0/prescaler_0/tspc_0/Z3 pll_full_buffered2_0/pll_full_0/divider_0/prescaler_0/tspc_0/D 0.05fF
C59 div_pd_buffered_0/divider_0/tspc_1/Z1 div_pd_buffered_0/divider_0/tspc_0/Q 0.01fF
C60 divider_buffered_0/divider_0/prescaler_0/tspc_0/a_740_n680# divider_buffered_0/divider_0/clk 0.14fF
C61 pll_full_buffered2_0/pll_full_0/divider_0/tspc_2/a_630_n680# pll_full_buffered2_0/pll_full_0/divider_0/nor_0/B 0.35fF
C62 pll_full_buffered2_0/pll_full_0/divider_0/prescaler_0/tspc_1/Q pll_full_buffered2_0/pll_full_0/vco 0.60fF
C63 ro_divider_buffered_0/tapered_buf_6/in1 ro_divider_buffered_0/tapered_buf_6/in2 0.37fF
C64 pll_full_buffered1_0/pll_full_0/ro_complete_0/cbank_0/switch_3/vin pll_full_buffered1_0/pll_full_0/ro_complete_0/a1 0.14fF
C65 pll_full_buffered1_0/pll_full_0/ro_complete_0/cbank_0/switch_1/vin pll_full_buffered1_0/pll_full_0/ro_complete_0/cbank_0/v 1.30fF
C66 pll_full_buffered1_0/pll_full_0/ro_complete_0/cbank_0/switch_2/vin pll_full_buffered1_0/pll_full_0/ro_complete_0/a3 0.09fF
C67 divider_buffered_0/divider_0/tspc_1/Q divider_buffered_0/divider_0/tspc_2/Z3 0.45fF
C68 divider_buffered_0/divider_0/tspc_0/a_630_n680# divider_buffered_0/divider_0/tspc_0/Z4 0.12fF
C69 ro_divider_buffered_0/tapered_buf_1/in3 ro_divider_buffered_0/tapered_buf_1/in2 1.27fF
C70 pll_full_buffered1_0/pll_full_0/divider_0/tspc_0/Q pll_full_buffered1_0/pll_full_0/divider_0/tspc_1/a_630_n680# 0.01fF
C71 ro_complete_buffered_0/tapered_buf_6/in3 ro_complete_buffered_0/tapered_buf_6/in5 2.89fF
C72 ro_divider_buffered_0/divider_0/tspc_2/Z1 ro_divider_buffered_0/divider_0/tspc_2/Z4 0.00fF
C73 pll_full_buffered1_0/pll_full_0/divider_0/nor_0/B pll_full_buffered1_0/pll_full_0/divider_0/tspc_2/Z2 0.40fF
C74 pll_full_buffered1_0/pll_full_0/divider_0/tspc_2/a_630_n680# pll_full_buffered1_0/pll_full_0/div 0.04fF
C75 ro_divider_buffered_0/divider_0/tspc_1/Z1 ro_divider_buffered_0/divider_0/tspc_1/Z3 0.06fF
C76 ro_divider_buffered_0/ro_complete_0/cbank_1/switch_1/vin ro_divider_buffered_0/divider_0/clk 1.30fF
C77 div_pd_buffered_0/divider_0/nor_0/Z1 div_pd_buffered_0/divider_0/nor_1/B 0.18fF
C78 div_pd_buffered_0/divider_0/tspc_1/Z1 div_pd_buffered_0/divider_0/tspc_1/Z2 1.07fF
C79 divider_buffered_0/tapered_buf_0/in4 divider_buffered_0/tapered_buf_0/in3 4.78fF
C80 pll_full_buffered2_0/pll_full_0/divider_0/tspc_0/Z1 pll_full_buffered2_0/pll_full_0/divider_0/tspc_0/Z2 1.07fF
C81 pll_full_buffered2_0/pll_full_0/ro_complete_0/a1 pll_full_buffered2_0/pll_full_0/vco 0.11fF
C82 ro_divider_buffered_0/tapered_buf_7/in4 ro_divider_buffered_0/tapered_buf_7/in5 29.21fF
C83 divider_buffered_0/divider_0/prescaler_0/tspc_0/Z2 divider_buffered_0/divider_0/prescaler_0/tspc_0/D 0.09fF
C84 divider_buffered_0/divider_0/mc2 divider_buffered_0/divider_0/nor_0/B 0.15fF
C85 pll_full_buffered1_0/pll_full_0/ref pll_full_buffered1_0/pll_full_0/vco 0.55fF
C86 pll_full_buffered1_0/pll_full_0/ro_complete_0/cbank_0/switch_5/vin pll_full_buffered1_0/pll_full_0/ro_complete_0/cbank_0/v 1.30fF
C87 divider_buffered_0/divider_0/tspc_2/Z2 divider_buffered_0/divider_0/tspc_2/Z3 0.16fF
C88 divider_buffered_0/divider_0/nor_0/B divider_buffered_0/divider_0/tspc_2/Z4 0.22fF
C89 ro_divider_buffered_0/ro_complete_0/a4 ro_divider_buffered_0/ro_complete_0/cbank_1/switch_0/vin 0.12fF
C90 ro_divider_buffered_0/divider_0/prescaler_0/tspc_2/Z1 ro_divider_buffered_0/divider_0/prescaler_0/tspc_2/Z2 1.07fF
C91 ro_divider_buffered_0/divider_0/prescaler_0/tspc_2/a_630_n680# ro_divider_buffered_0/divider_0/prescaler_0/tspc_2/Z4 0.12fF
C92 ro_divider_buffered_0/ro_complete_0/cbank_0/switch_2/vin ro_divider_buffered_0/ro_complete_0/cbank_0/v 1.30fF
C93 pll_full_buffered1_0/pll_full_0/divider_0/tspc_1/a_630_n680# pll_full_buffered1_0/pll_full_0/divider_0/tspc_1/Q 0.04fF
C94 pll_full_buffered1_0/pll_full_0/divider_0/tspc_0/Z4 pll_full_buffered1_0/pll_full_0/divider_0/tspc_0/Z2 0.36fF
C95 pll_full_buffered1_0/pll_full_0/divider_0/prescaler_0/tspc_2/Z1 pll_full_buffered1_0/pll_full_0/divider_0/prescaler_0/tspc_2/Z2 1.07fF
C96 pll_full_buffered1_0/pll_full_0/divider_0/prescaler_0/tspc_2/a_630_n680# pll_full_buffered1_0/pll_full_0/divider_0/prescaler_0/tspc_2/Z4 0.12fF
C97 pll_full_buffered1_0/pll_full_0/divider_0/prescaler_0/tspc_0/a_630_n680# pll_full_buffered1_0/pll_full_0/vco 0.01fF
C98 div_pd_buffered_0/tapered_buf_3/in1 div_pd_buffered_0/tapered_buf_3/in2 0.37fF
C99 pll_full_buffered2_0/pll_full_0/ref pll_full_buffered2_0/pll_full_0/pd_0/R 0.61fF
C100 pll_full_buffered1_0/pll_full_0/divider_0/and_0/out1 pll_full_buffered1_0/pll_full_0/divider_0/and_0/Z1 0.36fF
C101 pll_full_buffered2_0/pll_full_0/ro_complete_0/a0 pll_full_buffered2_0/pll_full_0/ro_complete_0/cbank_2/switch_4/vin 0.13fF
C102 cp_buffered_0/tapered_buf_1/in4 cp_buffered_0/tapered_buf_1/in5 29.21fF
C103 cp_buffered_0/cp_0/upbar cp_buffered_0/cp_0/down 0.02fF
C104 div_pd_buffered_0/pd_0/DIV div_pd_buffered_0/pd_0/R 0.51fF
C105 ro_divider_buffered_0/tapered_buf_1/in5 ro_divider_buffered_0/tapered_buf_1/in4 29.21fF
C106 pll_full_buffered1_0/pll_full_0/cp_0/upbar pll_full_buffered1_0/pll_full_0/pd_0/DOWN 0.02fF
C107 div_pd_buffered_0/tapered_buf_1/in1 div_pd_buffered_0/tapered_buf_1/in2 0.37fF
C108 pll_full_buffered2_0/pll_full_0/divider_0/tspc_1/Z3 pll_full_buffered2_0/pll_full_0/divider_0/tspc_0/Q 0.45fF
C109 pd_buffered_0/pd_0/tspc_r_0/Z4 pd_buffered_0/pd_0/tspc_r_0/Z3 0.20fF
C110 pd_buffered_0/pd_0/tspc_r_0/z5 pd_buffered_0/pd_0/REF 0.04fF
C111 pll_full_buffered1_0/pll_full_0/divider_0/prescaler_0/Out pll_full_buffered1_0/pll_full_0/divider_0/prescaler_0/tspc_1/Z4 0.28fF
C112 divider_buffered_0/divider_0/and_0/A divider_buffered_0/divider_0/and_0/B 0.18fF
C113 pll_full_buffered1_0/pll_full_0/ro_complete_0/cbank_2/v pll_full_buffered1_0/pll_full_0/vco 1.36fF
C114 ro_complete_buffered_0/tapered_buf_1/in5 ro_complete_buffered_0/tapered_buf_1/in1 0.22fF
C115 ro_complete_buffered_0/tapered_buf_7/in5 ro_complete_buffered_0/ro_complete_0/a5 26.29fF
C116 pll_full_buffered2_0/pll_full_0/pd_0/tspc_r_0/Qbar pll_full_buffered2_0/pll_full_0/pd_0/R 0.03fF
C117 io_clamp_high[0] io_analog[4] 0.53fF
C118 divider_buffered_0/divider_0/tspc_1/Z2 divider_buffered_0/divider_0/nor_1/A 0.15fF
C119 pll_full_buffered2_0/pll_full_0/ro_complete_0/a2 pll_full_buffered2_0/pll_full_0/ro_complete_0/cbank_2/switch_3/vin 0.09fF
C120 ro_divider_buffered_0/divider_0/prescaler_0/Out ro_divider_buffered_0/divider_0/prescaler_0/tspc_1/Z2 0.19fF
C121 ro_divider_buffered_0/ro_complete_0/a0 ro_divider_buffered_0/ro_complete_0/cbank_2/v 0.05fF
C122 ro_complete_buffered_0/ro_complete_0/a0 ro_complete_buffered_0/ro_complete_0/cbank_2/switch_5/vin 0.09fF
C123 pll_full_buffered2_0/pll_full_0/pd_0/tspc_r_0/Z2 pll_full_buffered2_0/pll_full_0/pd_0/tspc_r_0/Z3 0.25fF
C124 divider_buffered_0/divider_0/tspc_1/Z2 divider_buffered_0/divider_0/nor_1/B 0.30fF
C125 divider_buffered_0/divider_0/prescaler_0/tspc_2/a_740_n680# divider_buffered_0/divider_0/prescaler_0/tspc_2/a_630_n680# 0.19fF
C126 pll_full_buffered2_0/pll_full_0/divider_0/prescaler_0/tspc_0/Z2 pll_full_buffered2_0/pll_full_0/divider_0/and_0/OUT 0.06fF
C127 div_pd_buffered_0/divider_0/nor_1/Z1 div_pd_buffered_0/divider_0/nor_1/B 0.06fF
C128 ro_divider_buffered_0/divider_0/tspc_1/Z3 ro_divider_buffered_0/divider_0/tspc_1/Z4 0.65fF
C129 ro_divider_buffered_0/divider_0/prescaler_0/tspc_1/Z2 ro_divider_buffered_0/divider_0/prescaler_0/tspc_1/Q 0.06fF
C130 ro_divider_buffered_0/ro_complete_0/a0 ro_divider_buffered_0/divider_0/clk 0.05fF
C131 div_pd_buffered_0/divider_0/prescaler_0/tspc_0/a_740_n680# div_pd_buffered_0/divider_0/clk 0.14fF
C132 div_pd_buffered_0/divider_0/nor_0/Z1 div_pd_buffered_0/divider_0/and_0/B 0.78fF
C133 divider_buffered_0/divider_0/prescaler_0/tspc_0/a_630_n680# divider_buffered_0/divider_0/prescaler_0/tspc_0/Z4 0.12fF
C134 pll_full_buffered2_0/pll_full_0/divider_0/tspc_0/Z2 pll_full_buffered2_0/pll_full_0/divider_0/tspc_0/Z3 0.16fF
C135 pll_full_buffered2_0/pll_full_0/divider_0/prescaler_0/tspc_2/Z4 pll_full_buffered2_0/pll_full_0/vco 0.12fF
C136 divider_buffered_0/divider_0/prescaler_0/tspc_0/Z2 divider_buffered_0/divider_0/prescaler_0/tspc_0/Z4 0.36fF
C137 divider_buffered_0/divider_0/prescaler_0/tspc_0/Z3 divider_buffered_0/divider_0/prescaler_0/Out 0.05fF
C138 divider_buffered_0/tapered_buf_1/in2 divider_buffered_0/tapered_buf_1/in1 0.37fF
C139 divider_buffered_0/divider_0/prescaler_0/tspc_2/D divider_buffered_0/divider_0/prescaler_0/nand_0/z1 0.24fF
C140 pll_full_buffered1_0/pll_full_0/divider_0/nor_1/A pll_full_buffered1_0/pll_full_0/divider_0/tspc_0/a_630_n680# 0.35fF
C141 pll_full_buffered1_0/pll_full_0/divider_0/prescaler_0/Out pll_full_buffered1_0/pll_full_0/divider_0/prescaler_0/tspc_1/Q 0.91fF
C142 pll_full_buffered1_0/pll_full_0/divider_0/prescaler_0/tspc_1/a_630_n680# pll_full_buffered1_0/pll_full_0/divider_0/prescaler_0/tspc_1/Z2 0.01fF
C143 ro_divider_buffered_0/ro_complete_0/cbank_0/switch_5/vin ro_divider_buffered_0/ro_complete_0/a0 0.09fF
C144 ro_complete_buffered_0/ro_complete_0/a4 ro_complete_buffered_0/ro_complete_0/a5 2.39fF
C145 ro_complete_buffered_0/ro_complete_0/cbank_0/switch_0/vin ro_complete_buffered_0/ro_complete_0/cbank_0/v 1.30fF
C146 pll_full_buffered2_0/pll_full_0/pd_0/tspc_r_0/z5 pll_full_buffered2_0/pll_full_0/pd_0/UP 0.03fF
C147 pll_full_buffered2_0/tapered_buf_0/in5 pll_full_buffered2_0/tapered_buf_0/in1 0.22fF
C148 pll_full_buffered2_0/pll_full_0/divider_0/prescaler_0/tspc_0/Z2 pll_full_buffered2_0/pll_full_0/divider_0/prescaler_0/tspc_0/Z3 0.16fF
C149 ro_divider_buffered_0/divider_0/prescaler_0/tspc_1/Z1 ro_divider_buffered_0/divider_0/prescaler_0/tspc_1/Z4 0.00fF
C150 pll_full_buffered1_0/tapered_buf_2/in2 pll_full_buffered1_0/tapered_buf_2/in5 0.84fF
C151 pll_full_buffered1_0/tapered_buf_2/in3 pll_full_buffered1_0/tapered_buf_2/in4 4.78fF
C152 pll_full_buffered2_0/pll_full_0/divider_0/tspc_1/Z1 pll_full_buffered2_0/pll_full_0/divider_0/tspc_1/Z4 0.00fF
C153 filter_buffered_0/tapered_buf_0/in5 filter_buffered_0/v 26.29fF
C154 div_pd_buffered_0/divider_0/tspc_0/Z1 div_pd_buffered_0/divider_0/nor_1/A 0.03fF
C155 div_pd_buffered_0/divider_0/prescaler_0/tspc_0/a_740_n680# div_pd_buffered_0/divider_0/prescaler_0/tspc_0/Z4 0.08fF
C156 div_pd_buffered_0/divider_0/tspc_1/a_630_n680# div_pd_buffered_0/divider_0/tspc_0/Q 0.01fF
C157 div_pd_buffered_0/divider_0/nor_1/A div_pd_buffered_0/divider_0/and_0/A 0.01fF
C158 ro_divider_buffered_0/ro_complete_0/cbank_1/switch_3/vin ro_divider_buffered_0/ro_complete_0/cbank_1/switch_4/vin 0.20fF
C159 pll_full_buffered1_0/pll_full_0/ro_complete_0/a3 pll_full_buffered1_0/pll_full_0/ro_complete_0/cbank_2/switch_1/vin 0.13fF
C160 pll_full_buffered1_0/pll_full_0/ro_complete_0/cbank_2/switch_3/vin pll_full_buffered1_0/pll_full_0/ro_complete_0/cbank_2/switch_2/vin 0.20fF
C161 divider_buffered_0/divider_0/prescaler_0/tspc_2/D divider_buffered_0/divider_0/clk 0.26fF
C162 ashish_0/vop ashish_0/cm 3.87fF
C163 pll_full_buffered1_0/pll_full_0/divider_0/prescaler_0/tspc_0/Z4 pll_full_buffered1_0/pll_full_0/divider_0/prescaler_0/tspc_1/Q 0.21fF
C164 pll_full_buffered1_0/pll_full_0/divider_0/prescaler_0/m1_2700_2190# pll_full_buffered1_0/pll_full_0/divider_0/prescaler_0/tspc_2/D 0.16fF
C165 pll_full_buffered1_0/pll_full_0/ro_complete_0/cbank_1/switch_2/vin pll_full_buffered1_0/pll_full_0/vco 1.46fF
C166 ro_complete_buffered_0/tapered_buf_7/in1 ro_complete_buffered_0/tapered_buf_7/in2 0.37fF
C167 pll_full_buffered2_0/pll_full_0/pd_0/tspc_r_0/Z3 pll_full_buffered2_0/pll_full_0/pd_0/tspc_r_0/z5 0.11fF
C168 pll_full_buffered2_0/pll_full_0/pd_0/and_pd_0/Z1 pll_full_buffered2_0/pll_full_0/pd_0/UP 0.06fF
C169 pll_full_buffered2_0/pll_full_0/divider_0/prescaler_0/tspc_0/Z1 pll_full_buffered2_0/pll_full_0/divider_0/prescaler_0/tspc_0/Z4 0.00fF
C170 pll_full_buffered2_0/pll_full_0/ro_complete_0/a2 pll_full_buffered2_0/pll_full_0/ro_complete_0/cbank_2/v 0.05fF
C171 pll_full_buffered1_0/pll_full_0/pd_0/tspc_r_0/Z3 pll_full_buffered1_0/pll_full_0/pd_0/tspc_r_0/Qbar1 0.38fF
C172 divider_buffered_0/tapered_buf_0/in5 divider_buffered_0/tapered_buf_0/in2 0.84fF
C173 pll_full_buffered2_0/pll_full_0/divider_0/prescaler_0/tspc_2/Z3 pll_full_buffered2_0/pll_full_0/divider_0/prescaler_0/tspc_2/Z4 0.65fF
C174 pll_full_buffered2_0/pll_full_0/divider_0/prescaler_0/tspc_0/a_740_n680# pll_full_buffered2_0/pll_full_0/vco 0.14fF
C175 div_pd_buffered_0/divider_0/mc2 div_pd_buffered_0/divider_0/clk 0.04fF
C176 div_pd_buffered_0/divider_0/prescaler_0/m1_2700_2190# div_pd_buffered_0/divider_0/nor_1/A 0.01fF
C177 div_pd_buffered_0/divider_0/nor_1/Z1 div_pd_buffered_0/divider_0/and_0/B 0.18fF
C178 div_pd_buffered_0/divider_0/tspc_1/Z2 div_pd_buffered_0/divider_0/tspc_1/a_630_n680# 0.01fF
C179 div_pd_buffered_0/divider_0/prescaler_0/tspc_1/a_630_n680# div_pd_buffered_0/divider_0/prescaler_0/tspc_1/Z2 0.01fF
C180 div_pd_buffered_0/divider_0/nor_0/B div_pd_buffered_0/divider_0/tspc_2/Z1 0.03fF
C181 div_pd_buffered_0/divider_0/tspc_2/a_630_n680# div_pd_buffered_0/divider_0/tspc_2/Z3 0.05fF
C182 divider_buffered_0/divider_0/prescaler_0/m1_2700_2190# divider_buffered_0/divider_0/prescaler_0/tspc_1/Q 0.38fF
C183 ro_divider_buffered_0/divider_0/prescaler_0/tspc_2/a_630_n680# ro_divider_buffered_0/divider_0/prescaler_0/tspc_2/Q 0.04fF
C184 pd_buffered_0/pd_0/tspc_r_0/Qbar pd_buffered_0/pd_0/and_pd_0/Z1 0.02fF
C185 pd_buffered_0/pd_0/tspc_r_1/Qbar1 pd_buffered_0/pd_0/tspc_r_1/Qbar 0.01fF
C186 pll_full_buffered1_0/pll_full_0/ro_complete_0/a4 pll_full_buffered1_0/pll_full_0/ro_complete_0/cbank_2/v 0.05fF
C187 pll_full_buffered1_0/pll_full_0/pd_0/tspc_r_1/Qbar1 pll_full_buffered1_0/pll_full_0/div 0.12fF
C188 pll_full_buffered1_0/pll_full_0/divider_0/tspc_1/Z3 pll_full_buffered1_0/pll_full_0/divider_0/tspc_1/Z4 0.65fF
C189 pll_full_buffered1_0/pll_full_0/divider_0/prescaler_0/tspc_2/a_630_n680# pll_full_buffered1_0/pll_full_0/divider_0/prescaler_0/tspc_2/Q 0.04fF
C190 div_pd_buffered_0/pd_0/REF div_pd_buffered_0/pd_0/tspc_r_0/Z1 0.17fF
C191 pll_full_buffered2_0/pll_full_0/ro_complete_0/cbank_0/switch_0/vin pll_full_buffered2_0/pll_full_0/ro_complete_0/cbank_0/switch_1/vin 0.19fF
C192 ro_divider_buffered_0/divider_0/prescaler_0/tspc_0/Z3 ro_divider_buffered_0/divider_0/prescaler_0/tspc_0/Z4 0.65fF
C193 pll_full_buffered2_0/tapered_buf_3/in5 pll_full_buffered2_0/tapered_buf_3/in3 2.89fF
C194 divider_buffered_0/divider_0/prescaler_0/tspc_1/Z4 divider_buffered_0/divider_0/prescaler_0/m1_2700_2190# 0.08fF