* SPICE3 file created from user_analog_project_wrapper.ext - technology: sky130A

.subckt user_analog_project_wrapper gpio_analog[0] gpio_analog[10] gpio_analog[11]
+ gpio_analog[12] gpio_analog[13] gpio_analog[14] gpio_analog[15] gpio_analog[16]
+ gpio_analog[17] gpio_analog[1] gpio_analog[2] gpio_analog[3] gpio_analog[4] gpio_analog[5]
+ gpio_analog[6] gpio_analog[7] gpio_analog[8] gpio_analog[9] gpio_noesd[0] gpio_noesd[10]
+ gpio_noesd[11] gpio_noesd[12] gpio_noesd[13] gpio_noesd[14] gpio_noesd[15] gpio_noesd[16]
+ gpio_noesd[17] gpio_noesd[1] gpio_noesd[2] gpio_noesd[3] gpio_noesd[4] gpio_noesd[5]
+ gpio_noesd[6] gpio_noesd[7] gpio_noesd[8] gpio_noesd[9] io_analog[0] io_analog[10]
+ io_analog[1] io_analog[2] io_analog[3] io_analog[4] io_analog[5] io_analog[6] io_analog[7]
+ io_analog[8] io_analog[9] io_clamp_high[0] io_clamp_high[1] io_clamp_high[2] io_clamp_low[0]
+ io_clamp_low[1] io_clamp_low[2] io_in[0] io_in[10] io_in[11] io_in[12] io_in[13]
+ io_in[14] io_in[15] io_in[16] io_in[17] io_in[18] io_in[19] io_in[1] io_in[20] io_in[21]
+ io_in[22] io_in[23] io_in[24] io_in[25] io_in[26] io_in[2] io_in[3] io_in[4] io_in[5]
+ io_in[6] io_in[7] io_in[8] io_in[9] io_in_3v3[0] io_in_3v3[10] io_in_3v3[11] io_in_3v3[12]
+ io_in_3v3[13] io_in_3v3[14] io_in_3v3[15] io_in_3v3[16] io_in_3v3[17] io_in_3v3[18]
+ io_in_3v3[19] io_in_3v3[1] io_in_3v3[20] io_in_3v3[21] io_in_3v3[22] io_in_3v3[23]
+ io_in_3v3[24] io_in_3v3[25] io_in_3v3[26] io_in_3v3[2] io_in_3v3[3] io_in_3v3[4]
+ io_in_3v3[5] io_in_3v3[6] io_in_3v3[7] io_in_3v3[8] io_in_3v3[9] io_oeb[0] io_oeb[10]
+ io_oeb[11] io_oeb[12] io_oeb[13] io_oeb[14] io_oeb[15] io_oeb[16] io_oeb[17] io_oeb[18]
+ io_oeb[19] io_oeb[1] io_oeb[20] io_oeb[21] io_oeb[22] io_oeb[23] io_oeb[24] io_oeb[25]
+ io_oeb[26] io_oeb[2] io_oeb[3] io_oeb[4] io_oeb[5] io_oeb[6] io_oeb[7] io_oeb[8]
+ io_oeb[9] io_out[0] io_out[10] io_out[11] io_out[12] io_out[13] io_out[14] io_out[15]
+ io_out[16] io_out[17] io_out[18] io_out[19] io_out[1] io_out[20] io_out[21] io_out[22]
+ io_out[23] io_out[24] io_out[25] io_out[26] io_out[2] io_out[3] io_out[4] io_out[5]
+ io_out[6] io_out[7] io_out[8] io_out[9] la_data_in[0] la_data_in[100] la_data_in[101]
+ la_data_in[102] la_data_in[103] la_data_in[104] la_data_in[105] la_data_in[106]
+ la_data_in[107] la_data_in[108] la_data_in[109] la_data_in[10] la_data_in[110] la_data_in[111]
+ la_data_in[112] la_data_in[113] la_data_in[114] la_data_in[115] la_data_in[116]
+ la_data_in[117] la_data_in[118] la_data_in[119] la_data_in[11] la_data_in[120] la_data_in[121]
+ la_data_in[122] la_data_in[123] la_data_in[124] la_data_in[125] la_data_in[126]
+ la_data_in[127] la_data_in[12] la_data_in[13] la_data_in[14] la_data_in[15] la_data_in[16]
+ la_data_in[17] la_data_in[18] la_data_in[19] la_data_in[1] la_data_in[20] la_data_in[21]
+ la_data_in[22] la_data_in[23] la_data_in[24] la_data_in[25] la_data_in[26] la_data_in[27]
+ la_data_in[28] la_data_in[29] la_data_in[2] la_data_in[30] la_data_in[31] la_data_in[32]
+ la_data_in[33] la_data_in[34] la_data_in[35] la_data_in[36] la_data_in[37] la_data_in[38]
+ la_data_in[39] la_data_in[3] la_data_in[40] la_data_in[41] la_data_in[42] la_data_in[43]
+ la_data_in[44] la_data_in[45] la_data_in[46] la_data_in[47] la_data_in[48] la_data_in[49]
+ la_data_in[4] la_data_in[50] la_data_in[51] la_data_in[52] la_data_in[53] la_data_in[54]
+ la_data_in[55] la_data_in[56] la_data_in[57] la_data_in[58] la_data_in[59] la_data_in[5]
+ la_data_in[60] la_data_in[61] la_data_in[62] la_data_in[63] la_data_in[64] la_data_in[65]
+ la_data_in[66] la_data_in[67] la_data_in[68] la_data_in[69] la_data_in[6] la_data_in[70]
+ la_data_in[71] la_data_in[72] la_data_in[73] la_data_in[74] la_data_in[75] la_data_in[76]
+ la_data_in[77] la_data_in[78] la_data_in[79] la_data_in[7] la_data_in[80] la_data_in[81]
+ la_data_in[82] la_data_in[83] la_data_in[84] la_data_in[85] la_data_in[86] la_data_in[87]
+ la_data_in[88] la_data_in[89] la_data_in[8] la_data_in[90] la_data_in[91] la_data_in[92]
+ la_data_in[93] la_data_in[94] la_data_in[95] la_data_in[96] la_data_in[97] la_data_in[98]
+ la_data_in[99] la_data_in[9] la_data_out[0] la_data_out[100] la_data_out[101] la_data_out[102]
+ la_data_out[103] la_data_out[104] la_data_out[105] la_data_out[106] la_data_out[107]
+ la_data_out[108] la_data_out[109] la_data_out[10] la_data_out[110] la_data_out[111]
+ la_data_out[112] la_data_out[113] la_data_out[114] la_data_out[115] la_data_out[116]
+ la_data_out[117] la_data_out[118] la_data_out[119] la_data_out[11] la_data_out[120]
+ la_data_out[121] la_data_out[122] la_data_out[123] la_data_out[124] la_data_out[125]
+ la_data_out[126] la_data_out[127] la_data_out[12] la_data_out[13] la_data_out[14]
+ la_data_out[15] la_data_out[16] la_data_out[17] la_data_out[18] la_data_out[19]
+ la_data_out[1] la_data_out[20] la_data_out[21] la_data_out[22] la_data_out[23] la_data_out[24]
+ la_data_out[25] la_data_out[26] la_data_out[27] la_data_out[28] la_data_out[29]
+ la_data_out[2] la_data_out[30] la_data_out[31] la_data_out[32] la_data_out[33] la_data_out[34]
+ la_data_out[35] la_data_out[36] la_data_out[37] la_data_out[38] la_data_out[39]
+ la_data_out[3] la_data_out[40] la_data_out[41] la_data_out[42] la_data_out[43] la_data_out[44]
+ la_data_out[45] la_data_out[46] la_data_out[47] la_data_out[48] la_data_out[49]
+ la_data_out[4] la_data_out[50] la_data_out[51] la_data_out[52] la_data_out[53] la_data_out[54]
+ la_data_out[55] la_data_out[56] la_data_out[57] la_data_out[58] la_data_out[59]
+ la_data_out[5] la_data_out[60] la_data_out[61] la_data_out[62] la_data_out[63] la_data_out[64]
+ la_data_out[65] la_data_out[66] la_data_out[67] la_data_out[68] la_data_out[69]
+ la_data_out[6] la_data_out[70] la_data_out[71] la_data_out[72] la_data_out[73] la_data_out[74]
+ la_data_out[75] la_data_out[76] la_data_out[77] la_data_out[78] la_data_out[79]
+ la_data_out[7] la_data_out[80] la_data_out[81] la_data_out[82] la_data_out[83] la_data_out[84]
+ la_data_out[85] la_data_out[86] la_data_out[87] la_data_out[88] la_data_out[89]
+ la_data_out[8] la_data_out[90] la_data_out[91] la_data_out[92] la_data_out[93] la_data_out[94]
+ la_data_out[95] la_data_out[96] la_data_out[97] la_data_out[98] la_data_out[99]
+ la_data_out[9] la_oenb[0] la_oenb[100] la_oenb[101] la_oenb[102] la_oenb[103] la_oenb[104]
+ la_oenb[105] la_oenb[106] la_oenb[107] la_oenb[108] la_oenb[109] la_oenb[10] la_oenb[110]
+ la_oenb[111] la_oenb[112] la_oenb[113] la_oenb[114] la_oenb[115] la_oenb[116] la_oenb[117]
+ la_oenb[118] la_oenb[119] la_oenb[11] la_oenb[120] la_oenb[121] la_oenb[122] la_oenb[123]
+ la_oenb[124] la_oenb[125] la_oenb[126] la_oenb[127] la_oenb[12] la_oenb[13] la_oenb[14]
+ la_oenb[15] la_oenb[16] la_oenb[17] la_oenb[18] la_oenb[19] la_oenb[1] la_oenb[20]
+ la_oenb[21] la_oenb[22] la_oenb[23] la_oenb[24] la_oenb[25] la_oenb[26] la_oenb[27]
+ la_oenb[28] la_oenb[29] la_oenb[2] la_oenb[30] la_oenb[31] la_oenb[32] la_oenb[33]
+ la_oenb[34] la_oenb[35] la_oenb[36] la_oenb[37] la_oenb[38] la_oenb[39] la_oenb[3]
+ la_oenb[40] la_oenb[41] la_oenb[42] la_oenb[43] la_oenb[44] la_oenb[45] la_oenb[46]
+ la_oenb[47] la_oenb[48] la_oenb[49] la_oenb[4] la_oenb[50] la_oenb[51] la_oenb[52]
+ la_oenb[53] la_oenb[54] la_oenb[55] la_oenb[56] la_oenb[57] la_oenb[58] la_oenb[59]
+ la_oenb[5] la_oenb[60] la_oenb[61] la_oenb[62] la_oenb[63] la_oenb[64] la_oenb[65]
+ la_oenb[66] la_oenb[67] la_oenb[68] la_oenb[69] la_oenb[6] la_oenb[70] la_oenb[71]
+ la_oenb[72] la_oenb[73] la_oenb[74] la_oenb[75] la_oenb[76] la_oenb[77] la_oenb[78]
+ la_oenb[79] la_oenb[7] la_oenb[80] la_oenb[81] la_oenb[82] la_oenb[83] la_oenb[84]
+ la_oenb[85] la_oenb[86] la_oenb[87] la_oenb[88] la_oenb[89] la_oenb[8] la_oenb[90]
+ la_oenb[91] la_oenb[92] la_oenb[93] la_oenb[94] la_oenb[95] la_oenb[96] la_oenb[97]
+ la_oenb[98] la_oenb[99] la_oenb[9] user_clock2 user_irq[0] user_irq[1] user_irq[2]
+ vccd1 vccd2 vdda1 vdda2 vssa1 vssa2 vssd1 vssd2 wb_clk_i wb_rst_i wbs_ack_o wbs_adr_i[0]
+ wbs_adr_i[10] wbs_adr_i[11] wbs_adr_i[12] wbs_adr_i[13] wbs_adr_i[14] wbs_adr_i[15]
+ wbs_adr_i[16] wbs_adr_i[17] wbs_adr_i[18] wbs_adr_i[19] wbs_adr_i[1] wbs_adr_i[20]
+ wbs_adr_i[21] wbs_adr_i[22] wbs_adr_i[23] wbs_adr_i[24] wbs_adr_i[25] wbs_adr_i[26]
+ wbs_adr_i[27] wbs_adr_i[28] wbs_adr_i[29] wbs_adr_i[2] wbs_adr_i[30] wbs_adr_i[31]
+ wbs_adr_i[3] wbs_adr_i[4] wbs_adr_i[5] wbs_adr_i[6] wbs_adr_i[7] wbs_adr_i[8] wbs_adr_i[9]
+ wbs_cyc_i wbs_dat_i[0] wbs_dat_i[10] wbs_dat_i[11] wbs_dat_i[12] wbs_dat_i[13] wbs_dat_i[14]
+ wbs_dat_i[15] wbs_dat_i[16] wbs_dat_i[17] wbs_dat_i[18] wbs_dat_i[19] wbs_dat_i[1]
+ wbs_dat_i[20] wbs_dat_i[21] wbs_dat_i[22] wbs_dat_i[23] wbs_dat_i[24] wbs_dat_i[25]
+ wbs_dat_i[26] wbs_dat_i[27] wbs_dat_i[28] wbs_dat_i[29] wbs_dat_i[2] wbs_dat_i[30]
+ wbs_dat_i[31] wbs_dat_i[3] wbs_dat_i[4] wbs_dat_i[5] wbs_dat_i[6] wbs_dat_i[7] wbs_dat_i[8]
+ wbs_dat_i[9] wbs_dat_o[0] wbs_dat_o[10] wbs_dat_o[11] wbs_dat_o[12] wbs_dat_o[13]
+ wbs_dat_o[14] wbs_dat_o[15] wbs_dat_o[16] wbs_dat_o[17] wbs_dat_o[18] wbs_dat_o[19]
+ wbs_dat_o[1] wbs_dat_o[20] wbs_dat_o[21] wbs_dat_o[22] wbs_dat_o[23] wbs_dat_o[24]
+ wbs_dat_o[25] wbs_dat_o[26] wbs_dat_o[27] wbs_dat_o[28] wbs_dat_o[29] wbs_dat_o[2]
+ wbs_dat_o[30] wbs_dat_o[31] wbs_dat_o[3] wbs_dat_o[4] wbs_dat_o[5] wbs_dat_o[6]
+ wbs_dat_o[7] wbs_dat_o[8] wbs_dat_o[9] wbs_sel_i[0] wbs_sel_i[1] wbs_sel_i[2] wbs_sel_i[3]
+ wbs_stb_i wbs_we_i
C0 pll_full_1/divider_0/tspc_1/Z2 pll_full_1/divider_0/tspc_0/Q 0.14fF
C1 pll_full_1/divider_0/prescaler_0/m1_2700_2190# pll_full_1/vco 0.01fF
C2 divider_0/prescaler_0/tspc_1/Z2 divider_0/and_0/OUT 0.06fF
C3 divider_0/prescaler_0/tspc_2/Z1 divider_0/prescaler_0/tspc_2/Z2 1.07fF
C4 divider_0/prescaler_0/tspc_2/a_630_n680# divider_0/prescaler_0/tspc_2/Z4 0.12fF
C5 divider_1/prescaler_0/tspc_0/Z1 divider_1/prescaler_0/tspc_0/D 0.03fF
C6 pll_full_0/divider_0/prescaler_0/Out pll_full_0/divider_0/prescaler_0/tspc_1/Z3 0.11fF
C7 pll_full_0/ro_complete_0/a3 pll_full_0/ro_complete_0/cbank_2/v 0.05fF
C8 pll_full_0/divider_0/nor_1/B pll_full_0/divider_0/tspc_2/Z2 0.20fF
C9 pll_full_1/pd_0/and_pd_0/Out1 pll_full_1/pd_0/and_pd_0/Z1 0.18fF
C10 div_pd_buffered_0/tapered_buf_0/a_160_230# div_pd_buffered_0/tapered_buf_0/a_580_0# 0.02fF
C11 div_pd_buffered_0/pd_0/tspc_r_0/Qbar div_pd_buffered_0/pd_0/and_pd_0/Z1 0.02fF
C12 div_pd_buffered_0/pd_0/tspc_r_1/Z3 div_pd_buffered_0/pd_0/tspc_r_1/z5 0.11fF
C13 pd_buffered_0/tapered_buf_1/a_n10_n140# pd_buffered_0/tapered_buf_1/a_n10_230# 0.01fF
C14 pd_buffered_0/pd_0/tspc_r_0/Z4 pd_buffered_0/pd_0/tspc_r_0/z5 0.04fF
C15 pll_full_1/pd_0/and_pd_0/Out1 pll_full_1/pd_0/R 0.33fF
C16 div_pd_buffered_0/divider_0/mc2 div_pd_buffered_0/divider_0/clk 0.04fF
C17 div_pd_buffered_0/tapered_buf_0/a_4670_0# div_pd_buffered_0/tapered_buf_0/a_210_n610# 29.21fF
C18 div_pd_buffered_0/divider_0/tspc_1/Z3 div_pd_buffered_0/divider_0/tspc_1/Z4 0.65fF
C19 pll_full_1/ro_complete_0/cbank_2/switch_4/vin pll_full_1/ro_complete_0/cbank_2/switch_5/vin 0.20fF
C20 pll_full_1/divider_0/and_0/OUT pll_full_1/div 0.01fF
C21 pll_full_1/divider_0/prescaler_0/tspc_0/D pll_full_1/divider_0/prescaler_0/nand_1/z1 0.21fF
C22 ro_complete_buffered_0/tapered_buf_5/a_580_0# ro_complete_buffered_0/tapered_buf_5/a_1650_0# 1.27fF
C23 pll_full_0/divider_0/prescaler_0/tspc_0/Z2 pll_full_0/divider_0/prescaler_0/tspc_1/Q 0.06fF
C24 pll_full_0/divider_0/nor_1/A pll_full_0/divider_0/nor_1/B 1.21fF
C25 io_clamp_low[1] io_analog[5] 0.53fF
C26 divider_1/and_0/out1 divider_1/and_0/A 0.01fF
C27 divider_0/mc2 divider_0/nor_0/B 0.15fF
C28 ro_complete_buffered_0/tapered_buf_6/a_580_0# ro_complete_buffered_0/tapered_buf_6/a_160_230# 0.02fF
C29 ro_complete_buffered_0/tapered_buf_6/a_160_n140# ro_complete_buffered_0/tapered_buf_6/a_210_n610# 0.22fF
C30 pll_full_1/divider_0/prescaler_0/tspc_0/Z1 pll_full_1/divider_0/prescaler_0/tspc_0/Z3 0.06fF
C31 pll_full_1/ro_complete_0/a4 pll_full_1/ro_complete_0/cbank_2/switch_1/vin 0.09fF
C32 pll_full_1/ro_complete_0/cbank_0/switch_3/vin pll_full_1/ro_complete_0/cbank_0/v 1.30fF
C33 div_pd_buffered_0/pd_0/R div_pd_buffered_0/pd_0/UP 0.45fF
C34 pd_buffered_0/pd_0/tspc_r_0/Qbar1 pd_buffered_0/pd_0/UP 0.11fF
C35 div_pd_buffered_0/tapered_buf_2/a_1650_0# div_pd_buffered_0/tapered_buf_2/a_580_0# 1.27fF
C36 pll_full_1/pd_0/and_pd_0/Z1 pll_full_1/pd_0/R 0.02fF
C37 div_pd_buffered_0/divider_0/prescaler_0/tspc_2/Z1 div_pd_buffered_0/divider_0/prescaler_0/tspc_2/D 0.15fF
C38 cp_buffered_0/tapered_buf_1/a_1650_0# cp_buffered_0/tapered_buf_1/a_210_n610# 2.89fF
C39 pll_full_1/ro_complete_0/cbank_1/switch_1/vin pll_full_1/vco 1.46fF
C40 div_pd_buffered_0/tapered_buf_3/a_160_n140# div_pd_buffered_0/tapered_buf_3/a_580_0# 0.35fF
C41 divider_0/nor_1/A divider_0/tspc_0/Z3 0.38fF
C42 divider_0/prescaler_0/tspc_0/a_630_n680# divider_0/clk 0.01fF
C43 ro_complete_0/a5 ro_complete_0/cbank_1/switch_0/vin 0.09fF
C44 ro_complete_0/cbank_0/switch_4/vin ro_complete_0/cbank_0/v 1.30fF
C45 pll_full_0/ro_complete_0/a3 pll_full_0/ro_complete_0/cbank_1/switch_2/vin 0.09fF
C46 pll_full_1/pd_0/DOWN pll_full_1/cp_0/a_1710_0# 0.04fF
C47 pll_full_0/divider_0/prescaler_0/m1_2700_2190# pll_full_0/divider_0/and_0/OUT 0.14fF
C48 pll_full_0/divider_0/prescaler_0/Out pll_full_0/vco 0.51fF
C49 pll_full_0/pd_0/tspc_r_0/Z4 pll_full_0/pd_0/tspc_r_0/z5 0.04fF
C50 div_pd_buffered_0/pd_0/tspc_r_0/Z3 div_pd_buffered_0/pd_0/tspc_r_0/Z2 0.25fF
C51 divider_1/tspc_0/Z2 divider_1/nor_1/A 0.23fF
C52 ro_complete_buffered_0/tapered_buf_7/a_580_0# ro_complete_buffered_0/tapered_buf_7/a_160_230# 0.02fF
C53 ro_complete_buffered_0/tapered_buf_7/a_160_n140# ro_complete_buffered_0/tapered_buf_7/a_210_n610# 0.22fF
C54 ro_complete_buffered_0/tapered_buf_2/a_580_0# ro_complete_buffered_0/tapered_buf_2/a_160_230# 0.02fF
C55 ro_complete_0/cbank_0/v ro_complete_0/cbank_0/switch_3/vin 1.30fF
C56 pll_full_1/ro_complete_0/cbank_2/switch_1/vin pll_full_1/ro_complete_0/cbank_2/switch_2/vin 0.20fF
C57 div_pd_buffered_0/divider_0/prescaler_0/Out div_pd_buffered_0/divider_0/nor_1/A 0.15fF
C58 divider_0/prescaler_0/tspc_0/a_630_n680# divider_0/prescaler_0/Out 0.04fF
C59 ro_complete_buffered_0/ro_complete_0/a3 ro_complete_buffered_0/ro_complete_0/cbank_2/switch_1/vin 0.13fF
C60 ro_complete_buffered_0/ro_complete_0/cbank_2/switch_3/vin ro_complete_buffered_0/ro_complete_0/cbank_2/switch_2/vin 0.20fF
C61 pd_buffered_0/tapered_buf_2/a_580_0# pd_buffered_0/tapered_buf_2/a_1650_0# 1.27fF
C62 div_pd_buffered_0/divider_0/tspc_1/Q div_pd_buffered_0/divider_0/tspc_2/Z3 0.45fF
C63 div_pd_buffered_0/divider_0/nor_1/B div_pd_buffered_0/divider_0/and_0/A 0.26fF
C64 pll_full_1/divider_0/prescaler_0/tspc_2/Z2 pll_full_1/divider_0/prescaler_0/tspc_2/Z4 0.36fF
C65 divider_1/prescaler_0/tspc_0/Z4 divider_1/prescaler_0/tspc_1/Q 0.21fF
C66 divider_0/nor_1/B divider_0/tspc_0/Q 0.22fF
C67 ro_complete_0/a1 ro_complete_0/cbank_1/v 0.05fF
C68 divider_1/tspc_0/Q divider_1/tspc_1/Z3 0.45fF
C69 pll_full_0/ro_complete_0/cbank_1/switch_4/vin pll_full_0/ro_complete_0/cbank_1/switch_5/vin 0.20fF
C70 pll_full_0/divider_0/nor_1/A pll_full_0/divider_0/and_0/B 0.08fF
C71 pll_full_0/divider_0/prescaler_0/tspc_2/a_740_n680# pll_full_0/divider_0/prescaler_0/tspc_2/Q 0.20fF
C72 pll_full_0/divider_0/prescaler_0/tspc_2/Z2 pll_full_0/divider_0/prescaler_0/tspc_2/D 0.09fF
C73 pll_full_0/divider_0/prescaler_0/tspc_0/Z4 pll_full_0/vco 0.12fF
C74 pll_full_0/ref pll_full_0/pd_0/tspc_r_0/Z2 0.19fF
C75 div_pd_buffered_0/pd_0/DIV div_pd_buffered_0/pd_0/tspc_r_1/Z3 0.65fF
C76 cp_buffered_0/tapered_buf_2/a_n10_230# cp_buffered_0/tapered_buf_2/in 0.02fF
C77 pd_buffered_0/pd_0/REF pd_buffered_0/pd_0/tspc_r_0/Z4 0.02fF
C78 pd_buffered_0/tapered_buf_3/a_n10_n140# pd_buffered_0/pd_0/DOWN 0.04fF
C79 pll_full_0/pd_0/tspc_r_0/Z1 pll_full_0/pd_0/tspc_r_0/Z2 0.71fF
C80 div_pd_buffered_0/pd_0/DIV div_pd_buffered_0/divider_0/tspc_2/Z3 0.05fF
C81 div_pd_buffered_0/divider_0/prescaler_0/tspc_0/Z3 div_pd_buffered_0/divider_0/prescaler_0/tspc_1/Q 0.13fF
C82 div_pd_buffered_0/divider_0/prescaler_0/tspc_1/Z1 div_pd_buffered_0/divider_0/prescaler_0/tspc_1/Z3 0.06fF
C83 divider_0/tspc_1/a_630_n680# divider_0/tspc_1/Z3 0.05fF
C84 divider_0/nor_1/B divider_0/tspc_1/Z1 0.03fF
C85 divider_0/nor_1/A divider_0/tspc_0/Z2 0.23fF
C86 divider_0/prescaler_0/tspc_1/Z4 divider_0/prescaler_0/m1_2700_2190# 0.08fF
C87 ro_complete_buffered_0/ro_complete_0/a4 ro_complete_buffered_0/ro_complete_0/cbank_2/v 0.05fF
C88 ro_complete_buffered_0/ro_complete_0/cbank_1/switch_4/vin ro_complete_buffered_0/tapered_buf_1/in 1.30fF
C89 div_pd_buffered_0/tapered_buf_0/a_1650_0# div_pd_buffered_0/tapered_buf_0/a_210_n610# 2.89fF
C90 div_pd_buffered_0/divider_0/tspc_2/Z2 div_pd_buffered_0/divider_0/tspc_2/Z3 0.16fF
C91 div_pd_buffered_0/divider_0/nor_0/B div_pd_buffered_0/divider_0/tspc_2/Z4 0.22fF
C92 pll_full_0/pd_0/tspc_r_0/Z3 pll_full_0/pd_0/tspc_r_0/z5 0.11fF
C93 divider_0/prescaler_0/tspc_2/a_630_n680# divider_0/prescaler_0/tspc_2/Q 0.04fF
C94 divider_0/prescaler_0/tspc_0/Z3 divider_0/clk 0.64fF
C95 pll_full_0/divider_0/tspc_1/Z1 pll_full_0/divider_0/tspc_1/Z2 1.07fF
C96 divider_1/nor_0/B divider_1/tspc_1/a_630_n680# 0.00fF
C97 divider_0/prescaler_0/tspc_0/a_740_n680# divider_0/prescaler_0/tspc_1/Z4 0.01fF
C98 pll_full_0/divider_0/nor_1/B pll_full_0/divider_0/and_0/B 0.31fF
C99 pll_full_0/divider_0/prescaler_0/tspc_1/Q pll_full_0/divider_0/prescaler_0/nand_1/z1 0.22fF
C100 pll_full_0/divider_0/prescaler_0/tspc_2/Q pll_full_0/divider_0/prescaler_0/tspc_0/D 0.04fF
C101 pll_full_1/ro_complete_0/a4 pll_full_1/ro_complete_0/cbank_1/switch_1/vin 0.09fF
C102 pll_full_0/pd_0/tspc_r_1/Qbar pll_full_0/pd_0/DOWN 0.21fF
C103 div_pd_buffered_0/pd_0/R div_pd_buffered_0/pd_0/and_pd_0/Out1 0.33fF
C104 cp_buffered_0/tapered_buf_2/a_210_n610# cp_buffered_0/tapered_buf_2/a_160_n140# 0.22fF
C105 pd_buffered_0/pd_0/tspc_r_1/Z3 pd_buffered_0/pd_0/DOWN 0.03fF
C106 ro_complete_buffered_0/tapered_buf_1/out ro_complete_buffered_0/tapered_buf_1/a_210_n610# 26.29fF
C107 pll_full_1/divider_0/tspc_1/Z3 pll_full_1/divider_0/tspc_1/a_630_n680# 0.05fF
C108 pll_full_1/divider_0/tspc_1/Z1 pll_full_1/divider_0/nor_1/B 0.03fF
C109 pll_full_1/divider_0/prescaler_0/tspc_1/a_630_n680# pll_full_1/divider_0/prescaler_0/tspc_1/Z3 0.05fF
C110 pll_full_1/divider_0/prescaler_0/m1_2700_2190# pll_full_1/divider_0/prescaler_0/tspc_1/Z4 0.08fF
C111 div_pd_buffered_0/divider_0/nor_1/B div_pd_buffered_0/divider_0/tspc_1/Z4 0.21fF
C112 div_pd_buffered_0/divider_0/prescaler_0/Out div_pd_buffered_0/divider_0/tspc_0/Z3 0.45fF
C113 ro_complete_buffered_0/tapered_buf_3/a_580_0# ro_complete_buffered_0/tapered_buf_3/a_1650_0# 1.27fF
C114 divider_0/tspc_1/a_630_n680# divider_0/tspc_1/Z4 0.12fF
C115 divider_0/prescaler_0/tspc_0/Z2 divider_0/prescaler_0/tspc_0/Z4 0.36fF
C116 divider_0/prescaler_0/tspc_0/Z3 divider_0/prescaler_0/Out 0.05fF
C117 ro_complete_buffered_0/ro_complete_0/cbank_2/switch_2/vin ro_complete_buffered_0/ro_complete_0/cbank_2/v 1.30fF
C118 div_pd_buffered_0/divider_0/and_0/A div_pd_buffered_0/divider_0/and_0/B 0.18fF
C119 pll_full_0/ro_complete_0/cbank_0/switch_3/vin pll_full_0/ro_complete_0/a1 0.14fF
C120 pll_full_0/ro_complete_0/cbank_0/switch_1/vin pll_full_0/ro_complete_0/cbank_0/v 1.30fF
C121 pll_full_0/ro_complete_0/cbank_0/switch_2/vin pll_full_0/ro_complete_0/a3 0.09fF
C122 divider_0/prescaler_0/tspc_2/Q divider_0/prescaler_0/nand_1/z1 0.01fF
C123 divider_0/prescaler_0/tspc_2/Z2 divider_0/clk 0.11fF
C124 cp_buffered_0/tapered_buf_2/a_n10_230# cp_buffered_0/tapered_buf_2/a_n10_n140# 0.01fF
C125 pd_buffered_0/tapered_buf_3/a_160_n140# pd_buffered_0/tapered_buf_3/a_160_230# 0.17fF
C126 pd_buffered_0/tapered_buf_3/a_1650_0# pd_buffered_0/tapered_buf_3/a_4670_0# 4.78fF
C127 pll_full_0/divider_0/tspc_2/Z1 pll_full_0/divider_0/tspc_2/Z4 0.00fF
C128 divider_1/prescaler_0/tspc_0/a_740_n680# divider_1/prescaler_0/tspc_0/a_630_n680# 0.19fF
C129 divider_1/nor_1/Z1 divider_1/nor_1/B 0.06fF
C130 ro_complete_buffered_0/tapered_buf_2/a_580_0# ro_complete_buffered_0/tapered_buf_2/a_1650_0# 1.27fF
C131 pll_full_1/ro_complete_0/cbank_2/switch_3/vin pll_full_1/ro_complete_0/cbank_2/switch_4/vin 0.20fF
C132 pd_buffered_0/pd_0/R pd_buffered_0/pd_0/and_pd_0/Z1 0.02fF
C133 ro_complete_buffered_0/ro_complete_0/cbank_1/switch_1/vin ro_complete_buffered_0/ro_complete_0/a3 0.13fF
C134 ro_complete_buffered_0/tapered_buf_0/a_n10_230# ro_complete_buffered_0/tapered_buf_0/a_n10_n140# 0.01fF
C135 ro_complete_buffered_0/ro_complete_0/cbank_2/switch_3/vin ro_complete_buffered_0/ro_complete_0/a1 0.14fF
C136 ro_complete_0/a0 ro_complete_0/cbank_2/switch_5/vin 0.09fF
C137 pll_full_1/divider_0/prescaler_0/tspc_1/Z2 pll_full_1/divider_0/and_0/OUT 0.06fF
C138 pll_full_1/divider_0/prescaler_0/m1_2700_2190# pll_full_1/divider_0/prescaler_0/tspc_1/Q 0.38fF
C139 pll_full_1/divider_0/prescaler_0/tspc_0/Z4 pll_full_1/divider_0/prescaler_0/tspc_0/D 0.11fF
C140 pll_full_1/ro_complete_0/cbank_1/switch_4/vin pll_full_1/vco 1.46fF
C141 div_pd_buffered_0/tapered_buf_1/in div_pd_buffered_0/tapered_buf_1/a_n10_230# 0.02fF
C142 div_pd_buffered_0/divider_0/prescaler_0/tspc_2/D div_pd_buffered_0/divider_0/prescaler_0/nand_0/z1 0.24fF
C143 div_pd_buffered_0/tapered_buf_2/a_4670_0# div_pd_buffered_0/tapered_buf_2/a_210_n610# 29.21fF
C144 ro_complete_0/a3 ro_complete_0/cbank_2/switch_2/vin 0.09fF
C145 pll_full_1/divider_0/and_0/out1 pll_full_1/divider_0/and_0/A 0.01fF
C146 pll_full_1/divider_0/tspc_0/Z3 pll_full_1/divider_0/tspc_0/Q 0.05fF
C147 ro_complete_buffered_0/tapered_buf_2/a_n10_n140# ro_complete_buffered_0/tapered_buf_2/in 0.04fF
C148 pll_full_0/ro_complete_0/cbank_0/switch_5/vin pll_full_0/ro_complete_0/cbank_0/v 1.30fF
C149 divider_0/tspc_2/Z3 divider_0/tspc_2/Z4 0.65fF
C150 ro_complete_0/cbank_2/switch_3/vin ro_complete_0/a2 0.09fF
C151 ro_complete_0/a4 ro_complete_0/cbank_1/switch_1/vin 0.09fF
C152 divider_1/nor_1/B divider_1/tspc_2/Z4 0.02fF
C153 pll_full_0/divider_0/prescaler_0/tspc_2/Z1 pll_full_0/divider_0/prescaler_0/tspc_2/Z2 1.07fF
C154 pll_full_0/divider_0/prescaler_0/tspc_2/a_630_n680# pll_full_0/divider_0/prescaler_0/tspc_2/Z4 0.12fF
C155 pll_full_0/divider_0/prescaler_0/tspc_0/a_630_n680# pll_full_0/vco 0.01fF
C156 pll_full_1/pd_0/tspc_r_1/Z3 pll_full_1/div 0.65fF
C157 pll_full_0/pd_0/tspc_r_0/Z4 pll_full_0/pd_0/tspc_r_0/Z2 0.14fF
C158 div_pd_buffered_0/divider_0/prescaler_0/Out div_pd_buffered_0/divider_0/tspc_0/Z2 0.11fF
C159 pll_full_1/divider_0/prescaler_0/Out pll_full_1/divider_0/prescaler_0/tspc_1/Z1 0.08fF
C160 pll_full_1/ro_complete_0/a5 pll_full_1/ro_complete_0/cbank_2/v 0.08fF
C161 pll_full_1/ro_complete_0/a0 pll_full_1/ro_complete_0/cbank_1/switch_5/vin 0.09fF
C162 ro_complete_buffered_0/ro_complete_0/cbank_1/switch_4/vin ro_complete_buffered_0/ro_complete_0/a0 0.13fF
C163 ro_complete_buffered_0/ro_complete_0/a5 ro_complete_buffered_0/ro_complete_0/cbank_2/switch_0/vin 0.09fF
C164 pll_full_1/divider_0/prescaler_0/tspc_1/a_630_n680# pll_full_1/vco 0.01fF
C165 div_pd_buffered_0/divider_0/prescaler_0/tspc_2/D div_pd_buffered_0/divider_0/clk 0.26fF
C166 divider_0/prescaler_0/tspc_2/Z2 divider_0/prescaler_0/tspc_2/Z3 0.16fF
C167 pll_full_0/divider_0/prescaler_0/Out pll_full_0/divider_0/prescaler_0/tspc_1/Z4 0.28fF
C168 divider_1/tspc_0/Z1 divider_1/nor_1/A 0.03fF
C169 divider_1/tspc_2/a_630_n680# divider_1/tspc_2/Z3 0.05fF
C170 divider_1/nor_0/B divider_1/tspc_2/Z1 0.03fF
C171 pll_full_0/ro_complete_0/cbank_2/v pll_full_0/vco 1.36fF
C172 div_pd_buffered_0/pd_0/DOWN div_pd_buffered_0/pd_0/tspc_r_1/z5 0.03fF
C173 div_pd_buffered_0/pd_0/tspc_r_1/Z2 div_pd_buffered_0/pd_0/R 0.21fF
C174 div_pd_buffered_0/pd_0/tspc_r_0/Z3 div_pd_buffered_0/pd_0/UP 0.03fF
C175 divider_1/tspc_0/Z2 divider_1/tspc_0/Z4 0.36fF
C176 cp_buffered_0/tapered_buf_2/a_160_230# cp_buffered_0/tapered_buf_2/a_160_n140# 0.17fF
C177 cp_buffered_0/tapered_buf_2/a_n10_n140# cp_buffered_0/tapered_buf_2/in 0.04fF
C178 pd_buffered_0/pd_0/REF pd_buffered_0/pd_0/R 0.61fF
C179 pll_full_1/ro_complete_0/cbank_0/switch_1/vin pll_full_1/ro_complete_0/cbank_0/switch_2/vin 0.20fF
C180 pll_full_1/pd_0/tspc_r_1/Qbar1 pll_full_1/div 0.12fF
C181 pll_full_1/ro_complete_0/cbank_2/switch_4/vin pll_full_1/ro_complete_0/cbank_2/v 1.30fF
C182 ro_complete_buffered_0/ro_complete_0/a1 ro_complete_buffered_0/ro_complete_0/cbank_2/v 0.05fF
C183 divider_0/tspc_0/Z4 divider_0/tspc_0/Z3 0.65fF
C184 pll_full_1/pd_0/tspc_r_0/Z4 pll_full_1/ref 0.02fF
C185 pll_full_0/divider_0/nor_1/A pll_full_0/divider_0/tspc_0/a_630_n680# 0.35fF
C186 pll_full_0/divider_0/prescaler_0/Out pll_full_0/divider_0/prescaler_0/tspc_1/Q 0.91fF
C187 pll_full_0/divider_0/prescaler_0/tspc_1/a_630_n680# pll_full_0/divider_0/prescaler_0/tspc_1/Z2 0.01fF
C188 pll_full_0/divider_0/nor_0/Z1 pll_full_0/divider_0/nor_0/B 0.06fF
C189 pll_full_0/pd_0/tspc_r_0/Z3 pll_full_0/pd_0/tspc_r_0/Z2 0.25fF
C190 divider_1/mc2 divider_1/and_0/A 0.16fF
C191 divider_1/nor_0/Z1 divider_1/nor_0/B 0.06fF
C192 pll_full_1/pd_0/tspc_r_0/Qbar pll_full_1/pd_0/UP 0.21fF
C193 div_pd_buffered_0/divider_0/prescaler_0/Out div_pd_buffered_0/divider_0/tspc_0/Z4 0.12fF
C194 ro_complete_buffered_0/tapered_buf_6/a_1650_0# ro_complete_buffered_0/tapered_buf_6/a_210_n610# 2.89fF
C195 div_pd_buffered_0/divider_0/prescaler_0/tspc_2/Z3 div_pd_buffered_0/divider_0/prescaler_0/tspc_2/D 0.05fF
C196 pll_full_1/divider_0/tspc_1/Z2 pll_full_1/divider_0/tspc_1/Z4 0.36fF
C197 pll_full_1/divider_0/tspc_1/Z3 pll_full_1/divider_0/tspc_1/Q 0.05fF
C198 cp_buffered_0/tapered_buf_1/a_160_n140# cp_buffered_0/tapered_buf_1/in 0.19fF
C199 divider_0/prescaler_0/m1_2700_2190# divider_0/prescaler_0/tspc_1/a_630_n680# 0.19fF
C200 cp_buffered_0/tapered_buf_0/in cp_buffered_0/tapered_buf_0/a_n10_230# 0.02fF
C201 div_pd_buffered_0/tapered_buf_3/a_160_230# div_pd_buffered_0/tapered_buf_3/a_n10_230# 0.09fF
C202 divider_0/and_0/OUT divider_0/and_0/B 0.01fF
C203 pll_full_0/ro_complete_0/a3 pll_full_0/ro_complete_0/cbank_2/switch_1/vin 0.13fF
C204 pll_full_0/ro_complete_0/cbank_2/switch_3/vin pll_full_0/ro_complete_0/cbank_2/switch_2/vin 0.20fF
C205 pll_full_0/divider_0/nor_1/B pll_full_0/divider_0/tspc_0/a_630_n680# 0.01fF
C206 pll_full_0/divider_0/prescaler_0/tspc_0/Z4 pll_full_0/divider_0/prescaler_0/tspc_1/Q 0.21fF
C207 pll_full_0/divider_0/prescaler_0/m1_2700_2190# pll_full_0/divider_0/prescaler_0/tspc_2/D 0.16fF
C208 pll_full_0/ro_complete_0/cbank_1/switch_2/vin pll_full_0/vco 1.46fF
C209 divider_1/and_0/OUT divider_1/prescaler_0/tspc_2/D 0.03fF
C210 div_pd_buffered_0/pd_0/tspc_r_0/Qbar1 div_pd_buffered_0/pd_0/tspc_r_0/Qbar 0.01fF
C211 ro_complete_buffered_0/tapered_buf_7/a_1650_0# ro_complete_buffered_0/tapered_buf_7/a_210_n610# 2.89fF
C212 pll_full_1/divider_0/prescaler_0/tspc_0/Z2 pll_full_1/divider_0/prescaler_0/tspc_0/Z4 0.36fF
C213 div_pd_buffered_0/divider_0/tspc_1/Q div_pd_buffered_0/divider_0/tspc_2/Z4 0.15fF
C214 divider_0/nor_1/A divider_0/tspc_1/Z2 0.15fF
C215 ro_complete_buffered_0/ro_complete_0/a2 ro_complete_buffered_0/tapered_buf_1/in 0.05fF
C216 ro_complete_buffered_0/ro_complete_0/cbank_0/switch_4/vin ro_complete_buffered_0/ro_complete_0/a0 0.13fF
C217 ro_complete_0/cbank_1/v ro_complete_0/cbank_2/v 1.36fF
C218 divider_0/tspc_0/Z4 divider_0/tspc_0/Z2 0.36fF
C219 divider_0/prescaler_0/tspc_0/Z3 divider_0/prescaler_0/tspc_1/Q 0.13fF
C220 divider_0/prescaler_0/m1_2700_2190# divider_0/and_0/OUT 0.14fF
C221 divider_0/prescaler_0/tspc_2/a_740_n680# divider_0/prescaler_0/tspc_2/a_630_n680# 0.19fF
C222 divider_0/nor_1/B divider_0/and_0/A 0.26fF
C223 pll_full_1/pd_0/R pll_full_1/pd_0/tspc_r_1/Z3 0.27fF
C224 divider_1/tspc_0/Q divider_1/nor_1/A 0.55fF
C225 divider_1/prescaler_0/tspc_0/Z3 divider_1/prescaler_0/tspc_0/D 0.05fF
C226 pll_full_0/ro_complete_0/a4 pll_full_0/ro_complete_0/cbank_2/v 0.05fF
C227 pll_full_0/divider_0/prescaler_0/tspc_2/a_630_n680# pll_full_0/divider_0/prescaler_0/tspc_2/Q 0.04fF
C228 divider_1/tspc_1/Q divider_1/tspc_1/a_630_n680# 0.04fF
C229 pd_buffered_0/tapered_buf_2/a_n10_230# pd_buffered_0/tapered_buf_2/a_n10_n140# 0.01fF
C230 div_pd_buffered_0/pd_0/tspc_r_1/Z3 div_pd_buffered_0/pd_0/tspc_r_1/Qbar1 0.38fF
C231 pd_buffered_0/pd_0/tspc_r_0/Z3 pd_buffered_0/pd_0/tspc_r_0/z5 0.11fF
C232 div_pd_buffered_0/divider_0/prescaler_0/tspc_1/Z1 div_pd_buffered_0/divider_0/prescaler_0/tspc_1/Z4 0.00fF
C233 div_pd_buffered_0/divider_0/prescaler_0/tspc_0/Z1 div_pd_buffered_0/divider_0/prescaler_0/tspc_0/D 0.03fF
C234 cp_buffered_0/cp_0/a_1710_n2840# cp_buffered_0/cp_0/a_1710_0# 0.83fF
C235 pll_full_1/ro_complete_0/cbank_0/v pll_full_1/ro_complete_0/cbank_2/v 0.04fF
C236 div_pd_buffered_0/divider_0/tspc_2/Z2 div_pd_buffered_0/divider_0/tspc_2/Z4 0.36fF
C237 divider_0/nor_1/B divider_0/tspc_1/Z3 0.38fF
C238 divider_0/prescaler_0/tspc_1/Z4 divider_0/prescaler_0/tspc_1/a_630_n680# 0.12fF
C239 ro_complete_buffered_0/ro_complete_0/cbank_1/switch_0/vin ro_complete_buffered_0/tapered_buf_1/in 1.43fF
C240 pll_full_1/divider_0/tspc_1/a_630_n680# pll_full_1/divider_0/tspc_0/Q 0.01fF
C241 divider_0/prescaler_0/Out divider_0/tspc_0/Z3 0.45fF
C242 divider_0/prescaler_0/tspc_0/Z4 divider_0/clk 0.12fF
C243 pll_full_1/pd_0/R pll_full_1/pd_0/tspc_r_1/Qbar1 0.01fF
C244 div_pd_buffered_0/tapered_buf_2/a_160_n140# div_pd_buffered_0/tapered_buf_2/a_n10_n140# 0.05fF
C245 divider_1/tspc_1/Z1 divider_1/tspc_1/Z2 1.07fF
C246 pll_full_0/divider_0/tspc_1/Z2 pll_full_0/divider_0/tspc_1/Z3 0.16fF
C247 pll_full_0/ro_complete_0/cbank_2/switch_2/vin pll_full_0/ro_complete_0/cbank_2/v 1.30fF
C248 pll_full_0/divider_0/prescaler_0/tspc_2/Q pll_full_0/divider_0/prescaler_0/nand_1/z1 0.01fF
C249 pll_full_0/divider_0/prescaler_0/tspc_2/Z2 pll_full_0/vco 0.11fF
C250 pll_full_1/ro_complete_0/cbank_1/switch_3/vin pll_full_1/ro_complete_0/cbank_1/switch_2/vin 0.20fF
C251 div_pd_buffered_0/divider_0/prescaler_0/tspc_0/Z1 div_pd_buffered_0/divider_0/prescaler_0/tspc_0/Z2 1.07fF
C252 pd_buffered_0/tapered_buf_0/a_580_0# pd_buffered_0/tapered_buf_0/a_160_230# 0.02fF
C253 pd_buffered_0/tapered_buf_0/a_160_n140# pd_buffered_0/tapered_buf_0/a_210_n610# 0.22fF
C254 pd_buffered_0/pd_0/DIV pd_buffered_0/pd_0/tspc_r_1/Z2 0.19fF