* SPICE3 file created from user_analog_project_wrapper.ext - technology: sky130A

.subckt user_analog_project_wrapper gpio_analog[0] gpio_analog[10] gpio_analog[11]
+ gpio_analog[12] gpio_analog[13] gpio_analog[14] gpio_analog[15] gpio_analog[16]
+ gpio_analog[17] gpio_analog[1] gpio_analog[2] gpio_analog[3] gpio_analog[4] gpio_analog[5]
+ gpio_analog[6] gpio_analog[7] gpio_analog[8] gpio_analog[9] gpio_noesd[0] gpio_noesd[10]
+ gpio_noesd[11] gpio_noesd[12] gpio_noesd[13] gpio_noesd[14] gpio_noesd[15] gpio_noesd[16]
+ gpio_noesd[17] gpio_noesd[1] gpio_noesd[2] gpio_noesd[3] gpio_noesd[4] gpio_noesd[5]
+ gpio_noesd[6] gpio_noesd[7] gpio_noesd[8] gpio_noesd[9] io_analog[0] io_analog[10]
+ io_analog[1] io_analog[2] io_analog[3] io_analog[4] io_analog[5] io_analog[6] io_analog[7]
+ io_analog[8] io_analog[9] io_clamp_high[0] io_clamp_high[1] io_clamp_high[2] io_clamp_low[0]
+ io_clamp_low[1] io_clamp_low[2] io_in[0] io_in[10] io_in[11] io_in[12] io_in[13]
+ io_in[14] io_in[15] io_in[16] io_in[17] io_in[18] io_in[19] io_in[1] io_in[20] io_in[21]
+ io_in[22] io_in[23] io_in[24] io_in[25] io_in[26] io_in[2] io_in[3] io_in[4] io_in[5]
+ io_in[6] io_in[7] io_in[8] io_in[9] io_in_3v3[0] io_in_3v3[10] io_in_3v3[11] io_in_3v3[12]
+ io_in_3v3[13] io_in_3v3[14] io_in_3v3[15] io_in_3v3[16] io_in_3v3[17] io_in_3v3[18]
+ io_in_3v3[19] io_in_3v3[1] io_in_3v3[20] io_in_3v3[21] io_in_3v3[22] io_in_3v3[23]
+ io_in_3v3[24] io_in_3v3[25] io_in_3v3[26] io_in_3v3[2] io_in_3v3[3] io_in_3v3[4]
+ io_in_3v3[5] io_in_3v3[6] io_in_3v3[7] io_in_3v3[8] io_in_3v3[9] io_oeb[0] io_oeb[10]
+ io_oeb[11] io_oeb[12] io_oeb[13] io_oeb[14] io_oeb[15] io_oeb[16] io_oeb[17] io_oeb[18]
+ io_oeb[19] io_oeb[1] io_oeb[20] io_oeb[21] io_oeb[22] io_oeb[23] io_oeb[24] io_oeb[25]
+ io_oeb[26] io_oeb[2] io_oeb[3] io_oeb[4] io_oeb[5] io_oeb[6] io_oeb[7] io_oeb[8]
+ io_oeb[9] io_out[0] io_out[10] io_out[11] io_out[12] io_out[13] io_out[14] io_out[15]
+ io_out[16] io_out[17] io_out[18] io_out[19] io_out[1] io_out[20] io_out[21] io_out[22]
+ io_out[23] io_out[24] io_out[25] io_out[26] io_out[2] io_out[3] io_out[4] io_out[5]
+ io_out[6] io_out[7] io_out[8] io_out[9] la_data_in[0] la_data_in[100] la_data_in[101]
+ la_data_in[102] la_data_in[103] la_data_in[104] la_data_in[105] la_data_in[106]
+ la_data_in[107] la_data_in[108] la_data_in[109] la_data_in[10] la_data_in[110] la_data_in[111]
+ la_data_in[112] la_data_in[113] la_data_in[114] la_data_in[115] la_data_in[116]
+ la_data_in[117] la_data_in[118] la_data_in[119] la_data_in[11] la_data_in[120] la_data_in[121]
+ la_data_in[122] la_data_in[123] la_data_in[124] la_data_in[125] la_data_in[126]
+ la_data_in[127] la_data_in[12] la_data_in[13] la_data_in[14] la_data_in[15] la_data_in[16]
+ la_data_in[17] la_data_in[18] la_data_in[19] la_data_in[1] la_data_in[20] la_data_in[21]
+ la_data_in[22] la_data_in[23] la_data_in[24] la_data_in[25] la_data_in[26] la_data_in[27]
+ la_data_in[28] la_data_in[29] la_data_in[2] la_data_in[30] la_data_in[31] la_data_in[32]
+ la_data_in[33] la_data_in[34] la_data_in[35] la_data_in[36] la_data_in[37] la_data_in[38]
+ la_data_in[39] la_data_in[3] la_data_in[40] la_data_in[41] la_data_in[42] la_data_in[43]
+ la_data_in[44] la_data_in[45] la_data_in[46] la_data_in[47] la_data_in[48] la_data_in[49]
+ la_data_in[4] la_data_in[50] la_data_in[51] la_data_in[52] la_data_in[53] la_data_in[54]
+ la_data_in[55] la_data_in[56] la_data_in[57] la_data_in[58] la_data_in[59] la_data_in[5]
+ la_data_in[60] la_data_in[61] la_data_in[62] la_data_in[63] la_data_in[64] la_data_in[65]
+ la_data_in[66] la_data_in[67] la_data_in[68] la_data_in[69] la_data_in[6] la_data_in[70]
+ la_data_in[71] la_data_in[72] la_data_in[73] la_data_in[74] la_data_in[75] la_data_in[76]
+ la_data_in[77] la_data_in[78] la_data_in[79] la_data_in[7] la_data_in[80] la_data_in[81]
+ la_data_in[82] la_data_in[83] la_data_in[84] la_data_in[85] la_data_in[86] la_data_in[87]
+ la_data_in[88] la_data_in[89] la_data_in[8] la_data_in[90] la_data_in[91] la_data_in[92]
+ la_data_in[93] la_data_in[94] la_data_in[95] la_data_in[96] la_data_in[97] la_data_in[98]
+ la_data_in[99] la_data_in[9] la_data_out[0] la_data_out[100] la_data_out[101] la_data_out[102]
+ la_data_out[103] la_data_out[104] la_data_out[105] la_data_out[106] la_data_out[107]
+ la_data_out[108] la_data_out[109] la_data_out[10] la_data_out[110] la_data_out[111]
+ la_data_out[112] la_data_out[113] la_data_out[114] la_data_out[115] la_data_out[116]
+ la_data_out[117] la_data_out[118] la_data_out[119] la_data_out[11] la_data_out[120]
+ la_data_out[121] la_data_out[122] la_data_out[123] la_data_out[124] la_data_out[125]
+ la_data_out[126] la_data_out[127] la_data_out[12] la_data_out[13] la_data_out[14]
+ la_data_out[15] la_data_out[16] la_data_out[17] la_data_out[18] la_data_out[19]
+ la_data_out[1] la_data_out[20] la_data_out[21] la_data_out[22] la_data_out[23] la_data_out[24]
+ la_data_out[25] la_data_out[26] la_data_out[27] la_data_out[28] la_data_out[29]
+ la_data_out[2] la_data_out[30] la_data_out[31] la_data_out[32] la_data_out[33] la_data_out[34]
+ la_data_out[35] la_data_out[36] la_data_out[37] la_data_out[38] la_data_out[39]
+ la_data_out[3] la_data_out[40] la_data_out[41] la_data_out[42] la_data_out[43] la_data_out[44]
+ la_data_out[45] la_data_out[46] la_data_out[47] la_data_out[48] la_data_out[49]
+ la_data_out[4] la_data_out[50] la_data_out[51] la_data_out[52] la_data_out[53] la_data_out[54]
+ la_data_out[55] la_data_out[56] la_data_out[57] la_data_out[58] la_data_out[59]
+ la_data_out[5] la_data_out[60] la_data_out[61] la_data_out[62] la_data_out[63] la_data_out[64]
+ la_data_out[65] la_data_out[66] la_data_out[67] la_data_out[68] la_data_out[69]
+ la_data_out[6] la_data_out[70] la_data_out[71] la_data_out[72] la_data_out[73] la_data_out[74]
+ la_data_out[75] la_data_out[76] la_data_out[77] la_data_out[78] la_data_out[79]
+ la_data_out[7] la_data_out[80] la_data_out[81] la_data_out[82] la_data_out[83] la_data_out[84]
+ la_data_out[85] la_data_out[86] la_data_out[87] la_data_out[88] la_data_out[89]
+ la_data_out[8] la_data_out[90] la_data_out[91] la_data_out[92] la_data_out[93] la_data_out[94]
+ la_data_out[95] la_data_out[96] la_data_out[97] la_data_out[98] la_data_out[99]
+ la_data_out[9] la_oenb[0] la_oenb[100] la_oenb[101] la_oenb[102] la_oenb[103] la_oenb[104]
+ la_oenb[105] la_oenb[106] la_oenb[107] la_oenb[108] la_oenb[109] la_oenb[10] la_oenb[110]
+ la_oenb[111] la_oenb[112] la_oenb[113] la_oenb[114] la_oenb[115] la_oenb[116] la_oenb[117]
+ la_oenb[118] la_oenb[119] la_oenb[11] la_oenb[120] la_oenb[121] la_oenb[122] la_oenb[123]
+ la_oenb[124] la_oenb[125] la_oenb[126] la_oenb[127] la_oenb[12] la_oenb[13] la_oenb[14]
+ la_oenb[15] la_oenb[16] la_oenb[17] la_oenb[18] la_oenb[19] la_oenb[1] la_oenb[20]
+ la_oenb[21] la_oenb[22] la_oenb[23] la_oenb[24] la_oenb[25] la_oenb[26] la_oenb[27]
+ la_oenb[28] la_oenb[29] la_oenb[2] la_oenb[30] la_oenb[31] la_oenb[32] la_oenb[33]
+ la_oenb[34] la_oenb[35] la_oenb[36] la_oenb[37] la_oenb[38] la_oenb[39] la_oenb[3]
+ la_oenb[40] la_oenb[41] la_oenb[42] la_oenb[43] la_oenb[44] la_oenb[45] la_oenb[46]
+ la_oenb[47] la_oenb[48] la_oenb[49] la_oenb[4] la_oenb[50] la_oenb[51] la_oenb[52]
+ la_oenb[53] la_oenb[54] la_oenb[55] la_oenb[56] la_oenb[57] la_oenb[58] la_oenb[59]
+ la_oenb[5] la_oenb[60] la_oenb[61] la_oenb[62] la_oenb[63] la_oenb[64] la_oenb[65]
+ la_oenb[66] la_oenb[67] la_oenb[68] la_oenb[69] la_oenb[6] la_oenb[70] la_oenb[71]
+ la_oenb[72] la_oenb[73] la_oenb[74] la_oenb[75] la_oenb[76] la_oenb[77] la_oenb[78]
+ la_oenb[79] la_oenb[7] la_oenb[80] la_oenb[81] la_oenb[82] la_oenb[83] la_oenb[84]
+ la_oenb[85] la_oenb[86] la_oenb[87] la_oenb[88] la_oenb[89] la_oenb[8] la_oenb[90]
+ la_oenb[91] la_oenb[92] la_oenb[93] la_oenb[94] la_oenb[95] la_oenb[96] la_oenb[97]
+ la_oenb[98] la_oenb[99] la_oenb[9] user_clock2 user_irq[0] user_irq[1] user_irq[2]
+ vccd1 vccd2 vdda1 vdda2 vssa1 vssa2 vssd1 vssd2 wb_clk_i wb_rst_i wbs_ack_o wbs_adr_i[0]
+ wbs_adr_i[10] wbs_adr_i[11] wbs_adr_i[12] wbs_adr_i[13] wbs_adr_i[14] wbs_adr_i[15]
+ wbs_adr_i[16] wbs_adr_i[17] wbs_adr_i[18] wbs_adr_i[19] wbs_adr_i[1] wbs_adr_i[20]
+ wbs_adr_i[21] wbs_adr_i[22] wbs_adr_i[23] wbs_adr_i[24] wbs_adr_i[25] wbs_adr_i[26]
+ wbs_adr_i[27] wbs_adr_i[28] wbs_adr_i[29] wbs_adr_i[2] wbs_adr_i[30] wbs_adr_i[31]
+ wbs_adr_i[3] wbs_adr_i[4] wbs_adr_i[5] wbs_adr_i[6] wbs_adr_i[7] wbs_adr_i[8] wbs_adr_i[9]
+ wbs_cyc_i wbs_dat_i[0] wbs_dat_i[10] wbs_dat_i[11] wbs_dat_i[12] wbs_dat_i[13] wbs_dat_i[14]
+ wbs_dat_i[15] wbs_dat_i[16] wbs_dat_i[17] wbs_dat_i[18] wbs_dat_i[19] wbs_dat_i[1]
+ wbs_dat_i[20] wbs_dat_i[21] wbs_dat_i[22] wbs_dat_i[23] wbs_dat_i[24] wbs_dat_i[25]
+ wbs_dat_i[26] wbs_dat_i[27] wbs_dat_i[28] wbs_dat_i[29] wbs_dat_i[2] wbs_dat_i[30]
+ wbs_dat_i[31] wbs_dat_i[3] wbs_dat_i[4] wbs_dat_i[5] wbs_dat_i[6] wbs_dat_i[7] wbs_dat_i[8]
+ wbs_dat_i[9] wbs_dat_o[0] wbs_dat_o[10] wbs_dat_o[11] wbs_dat_o[12] wbs_dat_o[13]
+ wbs_dat_o[14] wbs_dat_o[15] wbs_dat_o[16] wbs_dat_o[17] wbs_dat_o[18] wbs_dat_o[19]
+ wbs_dat_o[1] wbs_dat_o[20] wbs_dat_o[21] wbs_dat_o[22] wbs_dat_o[23] wbs_dat_o[24]
+ wbs_dat_o[25] wbs_dat_o[26] wbs_dat_o[27] wbs_dat_o[28] wbs_dat_o[29] wbs_dat_o[2]
+ wbs_dat_o[30] wbs_dat_o[31] wbs_dat_o[3] wbs_dat_o[4] wbs_dat_o[5] wbs_dat_o[6]
+ wbs_dat_o[7] wbs_dat_o[8] wbs_dat_o[9] wbs_sel_i[0] wbs_sel_i[1] wbs_sel_i[2] wbs_sel_i[3]
+ wbs_stb_i wbs_we_i
C0 pll_full_0/pd_0/tspc_r_0/Qbar1 pll_full_0/pd_0/DIV 0.12fF
C1 divider_0/prescaler_0/tspc_2/a_740_n680# divider_0/prescaler_0/tspc_1/Q 0.15fF
C2 divider_0/prescaler_0/tspc_2/Z2 divider_0/and_0/OUT 0.06fF
C3 ro_div_0/divider_0/prescaler_0/tspc_2/Z4 ro_div_0/divider_0/clk 0.12fF
C4 pd_div_0/divider_0/prescaler_0/tspc_2/Z4 pd_div_0/divider_0/prescaler_0/tspc_1/Q 0.21fF
C5 pd_div_0/divider_0/prescaler_0/tspc_2/Z1 pd_div_0/divider_0/prescaler_0/tspc_2/D 0.03fF
C6 pd_div_0/divider_0/prescaler_0/m1_2700_2190# pd_div_0/divider_0/clk 0.01fF
C7 pll_full_0/pd_0/REF pll_full_0/pd_0/tspc_r_1/Z1 0.17fF
C8 divbuf_5/a_492_n240# divbuf_5/OUT 0.00fF
C9 pll_full_0/divider_0/nor_1/A pll_full_0/divider_0/tspc_0/Z3 0.38fF
C10 divider_0/prescaler_0/tspc_0/Z2 divider_0/prescaler_0/tspc_0/Z3 0.16fF
C11 ro_div_0/ro_complete_0/cbank_2/switch_1/vin ro_div_0/ro_complete_0/cbank_2/switch_2/vin 0.20fF
C12 pll_full_0/divbuf_0/a_492_n240# pll_full_0/divbuf_0/OUT5 0.01fF
C13 pll_full_0/ro_complete_0/cbank_0/switch_1/vin pll_full_0/ro_complete_0/a4 0.09fF
C14 divider_0/tspc_0/a_630_n680# divider_0/tspc_0/Z2 0.01fF
C15 divider_0/prescaler_0/tspc_1/Q divider_0/prescaler_0/tspc_2/D 0.32fF
C16 divider_0/prescaler_0/tspc_2/a_630_n680# divider_0/clk 0.01fF
C17 pd_div_0/pd_0/tspc_r_1/Qbar1 pd_div_0/pd_0/R 0.30fF
C18 ro_div_0/divider_0/prescaler_0/tspc_0/Z1 ro_div_0/divider_0/prescaler_0/tspc_0/D 0.15fF
C19 pd_0/tspc_r_0/Z3 pd_0/DOWN 0.03fF
C20 pd_div_0/divider_0/tspc_0/Q pd_div_0/divider_0/tspc_1/Z3 0.45fF
C21 pll_full_0/divider_0/prescaler_0/tspc_1/Z2 pll_full_0/divider_0/prescaler_0/tspc_2/a_740_n680# 0.01fF
C22 pll_full_0/divider_0/prescaler_0/tspc_0/a_740_n680# pll_full_0/divider_0/prescaler_0/tspc_0/Q 0.20fF
C23 pll_full_0/divider_0/nor_1/B pll_full_0/divider_0/nor_1/A 1.21fF
C24 divbuf_6/OUT4 divbuf_6/OUT 1.11fF
C25 divider_0/prescaler_0/tspc_1/Z1 divider_0/prescaler_0/tspc_1/Z2 1.07fF
C26 divider_0/prescaler_0/tspc_1/a_630_n680# divider_0/prescaler_0/tspc_1/Z4 0.12fF
C27 divider_0/tspc_2/Z1 divider_0/tspc_2/Z4 0.00fF
C28 pd_div_0/pd_0/tspc_r_0/z5 pd_div_0/pd_0/tspc_r_1/z5 0.02fF
C29 ro_div_0/divider_0/nor_1/B ro_div_0/divider_0/nor_0/B 0.47fF
C30 ro_div_0/divider_0/tspc_0/a_630_n680# ro_div_0/divider_0/tspc_0/Z4 0.12fF
C31 ro_div_0/divider_0/prescaler_0/tspc_2/Z3 ro_div_0/divider_0/prescaler_0/tspc_2/Z4 0.65fF
C32 pd_div_0/divbuf_0/OUT3 pd_div_0/divbuf_0/OUT5 0.01fF
C33 pll_full_0/ro_complete_0/a2 pll_full_0/ro_complete_0/cbank_1/switch_3/vin 0.09fF
C34 divbuf_3/OUT2 divbuf_3/OUT5 0.02fF
C35 pd_div_0/divider_0/prescaler_0/tspc_0/Z2 pd_div_0/divider_0/and_0/OUT 0.05fF
C36 ro_complete_0/cbank_0/switch_0/vin ro_complete_0/a4 0.12fF
C37 ro_complete_0/a2 ro_complete_0/cbank_0/switch_3/vin 0.09fF
C38 ro_complete_0/cbank_1/switch_5/vin ro_complete_0/cbank_1/v 1.30fF
C39 pll_full_0/pd_0/R pll_full_0/pd_0/tspc_r_1/Qbar 0.03fF
C40 divider_0/tspc_1/a_630_n680# divider_0/nor_0/B 0.00fF
C41 divider_0/tspc_0/a_630_n680# divider_0/nor_1/A 0.35fF
C42 divider_0/prescaler_0/tspc_2/a_740_n680# divider_0/prescaler_0/tspc_2/Z4 0.08fF
C43 divider_0/prescaler_0/tspc_2/a_630_n680# divider_0/prescaler_0/tspc_2/Z3 0.05fF
C44 divider_0/prescaler_0/tspc_1/a_630_n680# divider_0/prescaler_0/tspc_1/Q 0.04fF
C45 ro_div_0/divider_0/tspc_0/a_630_n680# ro_div_0/divider_0/nor_1/B 0.01fF
C46 ro_div_0/divider_0/prescaler_0/tspc_0/Z2 ro_div_0/divider_0/prescaler_0/tspc_0/Z4 0.36fF
C47 ro_div_0/divider_0/tspc_1/Z2 ro_div_0/divider_0/tspc_0/Q 0.14fF
C48 pll_full_0/pd_0/REF pll_full_0/pd_0/tspc_r_1/Z3 0.65fF
C49 ro_div_0/ro_complete_0/a2 ro_div_0/ro_complete_0/cbank_2/switch_2/vin 0.14fF
C50 pd_div_0/divider_0/nor_1/A pd_div_0/divider_0/tspc_1/Z4 0.02fF
C51 pd_div_0/divider_0/nor_1/B pd_div_0/divider_0/tspc_2/Z2 0.20fF
C52 pd_div_0/divider_0/prescaler_0/tspc_0/a_630_n680# pd_div_0/divider_0/clk 0.01fF
C53 ro_div_0/ro_complete_0/a5 ro_div_0/divider_0/clk 0.10fF
C54 ro_div_0/ro_complete_0/cbank_0/switch_0/vin ro_div_0/ro_complete_0/a5 0.09fF
C55 ro_complete_0/cbank_1/switch_1/vin ro_complete_0/cbank_1/switch_2/vin 0.20fF
C56 pll_full_0/pd_0/REF pll_full_0/pd_0/DOWN 1.48fF
C57 pll_full_0/divider_0/prescaler_0/tspc_2/a_740_n680# pll_full_0/divider_0/prescaler_0/Out 0.21fF
C58 divider_0/tspc_0/Q divider_0/tspc_1/a_630_n680# 0.01fF
C59 divider_0/prescaler_0/tspc_0/a_740_n680# divider_0/prescaler_0/tspc_0/a_630_n680# 0.19fF
C60 divider_0/tspc_1/Q divider_0/tspc_2/Z3 0.45fF
C61 divider_0/prescaler_0/tspc_2/Z4 divider_0/prescaler_0/tspc_2/D 0.11fF
C62 divider_0/prescaler_0/tspc_1/Z1 divider_0/prescaler_0/Out 0.08fF
C63 pd_div_0/pd_0/tspc_r_1/Qbar1 pd_div_0/pd_0/tspc_r_1/Qbar 0.01fF
C64 ro_div_0/divider_0/prescaler_0/m1_2700_2190# ro_div_0/divider_0/prescaler_0/tspc_1/Z3 0.33fF
C65 pd_div_0/pd_0/tspc_r_0/Qbar1 pd_div_0/pd_0/R 0.01fF
C66 ro_div_0/divider_0/and_0/OUT ro_div_0/divider_0/and_0/Z1 0.04fF
C67 ro_div_0/divider_0/nor_0/B ro_div_0/divider_0/tspc_2/Z2 0.40fF
C68 ro_div_0/divider_0/tspc_2/a_630_n680# ro_div_0/divbuf_0/IN 0.04fF
C69 ro_div_0/divider_0/prescaler_0/tspc_0/Q ro_div_0/divider_0/clk 0.05fF
C70 pd_div_0/divider_0/prescaler_0/tspc_0/Z1 pd_div_0/divider_0/prescaler_0/tspc_0/Z2 1.07fF
C71 pd_div_0/divider_0/prescaler_0/tspc_0/a_630_n680# pd_div_0/divider_0/prescaler_0/tspc_0/Z4 0.12fF
C72 ro_div_0/ro_complete_0/a5 ro_div_0/ro_complete_0/cbank_2/v 0.08fF
C73 pll_full_0/ro_complete_0/a2 pll_full_0/ro_complete_0/cbank_2/v 0.05fF
C74 pd_div_0/divider_0/tspc_0/a_630_n680# pd_div_0/divider_0/prescaler_0/Out 0.01fF
C75 pd_div_0/divider_0/prescaler_0/tspc_1/Q pd_div_0/divider_0/prescaler_0/tspc_0/Q 0.19fF
C76 pd_div_0/divider_0/prescaler_0/tspc_2/a_740_n680# pd_div_0/divider_0/clk 0.14fF
C77 pll_full_0/divider_0/nor_1/B pll_full_0/divider_0/tspc_1/Z2 0.30fF
C78 pll_full_0/divider_0/prescaler_0/tspc_1/a_630_n680# pll_full_0/divider_0/prescaler_0/tspc_1/Z2 0.01fF
C79 ro_complete_0/cbank_0/switch_5/vin ro_complete_0/a0 0.09fF
C80 pll_full_0/divider_0/tspc_2/Z1 pll_full_0/divider_0/tspc_2/Z2 1.07fF
C81 pll_full_0/divider_0/nor_0/B pll_full_0/divider_0/tspc_2/Z3 0.38fF
C82 pll_full_0/divider_0/tspc_2/a_630_n680# pll_full_0/divider_0/tspc_2/Z4 0.12fF
C83 divbuf_6/a_492_n240# divbuf_6/IN 0.13fF
C84 pll_full_0/pd_0/R pll_full_0/pd_0/tspc_r_1/Qbar1 0.30fF
C85 divider_0/tspc_0/Z4 divider_0/tspc_0/a_630_n680# 0.12fF
C86 pd_div_0/div pd_div_0/pd_0/R 0.51fF
C87 ro_div_0/divider_0/prescaler_0/m1_2700_2190# ro_div_0/divider_0/prescaler_0/nand_0/z1 0.07fF
C88 ro_complete_0/cbank_2/switch_1/vin ro_complete_0/cbank_2/switch_0/vin 0.19fF
C89 ro_complete_0/cbank_2/switch_3/vin ro_complete_0/cbank_2/v 1.30fF
C90 pd_div_0/divider_0/tspc_1/Z1 pd_div_0/divider_0/tspc_1/Z2 1.07fF
C91 pd_div_0/divider_0/nor_1/B pd_div_0/divider_0/tspc_1/Z3 0.38fF
C92 pd_div_0/divider_0/prescaler_0/m1_2700_2190# pd_div_0/divider_0/prescaler_0/tspc_1/Z4 0.08fF
C93 pd_div_0/divider_0/prescaler_0/tspc_1/a_630_n680# pd_div_0/divider_0/prescaler_0/tspc_1/Z3 0.05fF
C94 pll_full_0/ro_complete_0/a0 pll_full_0/ro_complete_0/cbank_2/v 0.05fF
C95 divbuf_4/a_492_n240# divbuf_4/OUT2 0.42fF
C96 pd_div_0/divider_0/tspc_2/Z1 pd_div_0/divider_0/tspc_2/Z3 0.06fF
C97 pd_div_0/divider_0/nor_0/B pd_div_0/bufin 0.29fF
C98 pd_div_0/divider_0/prescaler_0/tspc_2/D pd_div_0/divider_0/clk 0.29fF
C99 pll_full_0/pd_0/tspc_r_0/Z2 pll_full_0/pd_0/tspc_r_0/Z1 0.71fF
C100 divider_0/mc2 divider_0/and_0/out1 0.06fF
C101 divider_0/prescaler_0/tspc_0/a_630_n680# divider_0/prescaler_0/tspc_0/Q 0.04fF
C102 divbuf_2/OUT5 divbuf_2/OUT 43.38fF
C103 ro_div_0/divider_0/tspc_1/Z1 ro_div_0/divider_0/tspc_0/Q 0.01fF
C104 ro_div_0/divider_0/prescaler_0/tspc_2/Z4 ro_div_0/divider_0/prescaler_0/tspc_1/Q 0.21fF
C105 ro_div_0/divider_0/prescaler_0/tspc_2/Z1 ro_div_0/divider_0/prescaler_0/tspc_2/D 0.03fF
C106 ro_div_0/divider_0/prescaler_0/m1_2700_2190# ro_div_0/divider_0/clk 0.01fF
C107 pd_0/tspc_r_1/Z3 pd_0/tspc_r_1/Z4 0.20fF
C108 pd_0/REF pd_0/tspc_r_1/z5 0.04fF
C109 pd_0/tspc_r_1/Z1 pd_0/tspc_r_1/Z2 0.71fF
C110 divbuf_3/OUT5 divbuf_3/OUT 43.38fF
C111 pd_div_0/divider_0/tspc_1/Z2 pd_div_0/divider_0/tspc_1/Z4 0.36fF
C112 pd_div_0/divider_0/prescaler_0/tspc_1/Z2 pd_div_0/divider_0/and_0/OUT 0.06fF
C113 pd_div_0/divider_0/prescaler_0/tspc_2/a_740_n680# pd_div_0/divider_0/prescaler_0/tspc_2/Z3 0.33fF
C114 pd_div_0/divider_0/prescaler_0/m1_2700_2190# pd_div_0/divider_0/prescaler_0/tspc_1/Q 0.38fF
C115 pll_full_0/divider_0/tspc_0/Q pll_full_0/divider_0/tspc_1/a_630_n680# 0.01fF
C116 pll_full_0/divider_0/prescaler_0/tspc_0/a_740_n680# pll_full_0/divider_0/prescaler_0/tspc_0/a_630_n680# 0.19fF
C117 ro_complete_0/cbank_0/switch_1/vin ro_complete_0/a3 0.13fF
C118 divbuf_4/OUT2 divbuf_4/OUT 0.06fF
C119 pd_div_0/divider_0/and_0/out1 pd_div_0/divider_0/and_0/Z1 0.36fF
C120 pll_full_0/divider_0/tspc_1/Q pll_full_0/divider_0/nor_0/B 0.22fF
C121 pll_full_0/divider_0/and_0/OUT pll_full_0/divider_0/prescaler_0/tspc_0/D 0.03fF
C122 pll_full_0/divider_0/prescaler_0/tspc_2/Z2 pll_full_0/divider_0/prescaler_0/tspc_2/D 0.09fF
C123 pll_full_0/pd_0/tspc_r_0/Z2 pll_full_0/pd_0/DIV 0.19fF
C124 divider_0/prescaler_0/tspc_0/Z2 divider_0/clk 0.11fF
C125 ro_div_0/divider_0/tspc_1/Z4 ro_div_0/divider_0/tspc_0/Q 0.15fF
C126 divbuf_3/OUT3 divbuf_3/OUT2 1.37fF
C127 pd_div_0/divider_0/tspc_1/Q pd_div_0/divider_0/tspc_2/Z1 0.01fF
C128 pd_div_0/divider_0/prescaler_0/tspc_2/Z3 pd_div_0/divider_0/prescaler_0/tspc_2/D 0.05fF
C129 pd_div_0/divider_0/prescaler_0/tspc_1/a_630_n680# pd_div_0/divider_0/clk 0.01fF
C130 pd_div_0/divider_0/nor_1/B pd_div_0/divider_0/and_0/A 0.26fF
C131 pll_full_0/divider_0/nor_1/B pll_full_0/divider_0/tspc_1/Z1 0.03fF
C132 pll_full_0/divider_0/tspc_0/Z4 pll_full_0/divider_0/tspc_0/a_630_n680# 0.12fF
C133 divbuf_5/IN divbuf_5/OUT5 0.00fF
C134 pll_full_0/divider_0/and_0/OUT pll_full_0/divider_0/and_0/out1 0.31fF
C135 pll_full_0/divider_0/nor_1/A pll_full_0/divider_0/and_0/A 0.01fF
C136 ro_div_0/ro_complete_0/cbank_0/switch_5/vin ro_div_0/ro_complete_0/a0 0.09fF
C137 divider_0/tspc_1/a_630_n680# divider_0/nor_1/B 0.35fF
C138 divider_0/prescaler_0/tspc_0/Z2 divider_0/prescaler_0/tspc_0/Z4 0.36fF
C139 pd_div_0/pd_0/tspc_r_0/Z4 pd_div_0/pd_0/tspc_r_0/z5 0.04fF
C140 ro_div_0/divider_0/prescaler_0/tspc_0/Z3 ro_div_0/divider_0/prescaler_0/tspc_0/D 0.05fF
C141 pll_full_0/ro_complete_0/cbank_2/switch_0/vin pll_full_0/ro_complete_0/a4 0.12fF
C142 pll_full_0/ro_complete_0/cbank_0/switch_3/vin pll_full_0/ro_complete_0/cbank_0/switch_2/vin 0.20fF
C143 divider_0/prescaler_0/tspc_1/Q divider_0/prescaler_0/nand_1/z1 0.22fF
C144 divider_0/prescaler_0/tspc_0/Q divider_0/prescaler_0/tspc_2/D 0.04fF
C145 ro_complete_0/a4 ro_complete_0/cbank_1/v 0.05fF
C146 pd_div_0/pd_0/DOWN pd_div_0/pd_0/and_pd_0/Z1 0.07fF
C147 pd_0/DIV pd_0/tspc_r_0/Z2 0.19fF
C148 pd_0/tspc_r_0/Z3 pd_0/tspc_r_0/Z1 0.09fF
C149 pll_full_0/ro_complete_0/a3 pll_full_0/ro_complete_0/cbank_2/v 0.05fF
C150 pll_full_0/ro_complete_0/cbank_2/switch_2/vin pll_full_0/ro_complete_0/cbank_2/switch_1/vin 0.20fF
C151 pll_full_0/pd_0/REF pll_full_0/pd_0/R 0.61fF
C152 pd_div_0/divider_0/nor_1/A pd_div_0/divider_0/and_0/B 0.08fF
C153 pll_full_0/divider_0/prescaler_0/m1_2700_2190# pll_full_0/divider_0/nor_1/A 0.01fF
C154 pll_full_0/divider_0/tspc_1/Z2 pll_full_0/divider_0/tspc_1/Z3 0.16fF
C155 pll_full_0/divider_0/nor_1/B pll_full_0/divider_0/tspc_1/Z4 0.21fF
C156 pll_full_0/divider_0/prescaler_0/tspc_0/Z1 pll_full_0/divider_0/prescaler_0/tspc_0/D 0.15fF
C157 ro_div_0/ro_complete_0/cbank_0/switch_1/vin ro_div_0/ro_complete_0/cbank_0/switch_2/vin 0.20fF
C158 ro_complete_0/a0 ro_complete_0/cbank_2/switch_4/vin 0.13fF
C159 pll_full_0/divider_0/nor_0/B pll_full_0/divider_0/and_0/B 0.29fF
C160 pll_full_0/pd_0/tspc_r_0/Qbar pll_full_0/pd_0/DOWN 0.21fF
C161 divider_0/prescaler_0/tspc_1/Z2 divider_0/prescaler_0/tspc_1/Z3 0.16fF
C162 pd_div_0/pd_0/tspc_r_0/z5 pd_div_0/pd_0/tspc_r_0/Qbar1 0.20fF
C163 ro_div_0/divider_0/nor_1/B ro_div_0/divider_0/tspc_2/Z2 0.20fF
C164 ro_div_0/divider_0/tspc_1/a_630_n680# ro_div_0/divider_0/tspc_0/Q 0.01fF
C165 divider_0/tspc_2/Z3 divider_0/tspc_2/Z4 0.65fF
C166 ro_div_0/divbuf_0/OUT4 ro_div_0/divbuf_0/OUT5 20.26fF
C167 pll_full_0/ro_complete_0/a2 pll_full_0/ro_complete_0/cbank_0/switch_2/vin 0.14fF
C168 pll_full_0/ro_complete_0/cbank_0/switch_0/vin pll_full_0/ro_complete_0/a4 0.12fF
C169 pd_0/R pd_0/tspc_r_1/Qbar 0.03fF
C170 pd_div_0/divider_0/tspc_1/Z1 pd_div_0/divider_0/tspc_1/Z4 0.00fF
C171 pd_div_0/divider_0/prescaler_0/tspc_1/Z4 pd_div_0/divider_0/prescaler_0/tspc_2/a_740_n680# 0.01fF
C172 pd_div_0/divider_0/prescaler_0/tspc_0/a_740_n680# pd_div_0/divider_0/prescaler_0/tspc_0/Q 0.20fF
C173 pd_div_0/divider_0/prescaler_0/tspc_0/Z2 pd_div_0/divider_0/prescaler_0/tspc_0/D 0.09fF
C174 ro_complete_0/a2 ro_complete_0/cbank_2/switch_3/vin 0.09fF
C175 io_clamp_low[0] io_clamp_high[0] 0.53fF
C176 pll_full_0/ro_complete_0/a5 pll_full_0/ro_complete_0/cbank_2/switch_0/vin 0.09fF
C177 pd_div_0/div pd_div_0/pd_0/tspc_r_0/z5 0.04fF
C178 divider_0/prescaler_0/tspc_2/Z1 divider_0/prescaler_0/tspc_2/Z2 1.07fF
C179 divider_0/prescaler_0/tspc_2/a_630_n680# divider_0/prescaler_0/tspc_2/Z4 0.12fF
C180 ro_div_0/divider_0/nor_1/A ro_div_0/divider_0/prescaler_0/Out 0.15fF
C181 ro_div_0/divider_0/prescaler_0/tspc_1/Q ro_div_0/divider_0/prescaler_0/tspc_0/Q 0.19fF
C182 ro_div_0/divider_0/prescaler_0/tspc_2/a_740_n680# ro_div_0/divider_0/clk 0.14fF
C183 pll_full_0/pd_0/tspc_r_1/Qbar pll_full_0/pd_0/and_pd_0/Out1 0.05fF
C184 pll_full_0/pd_0/DIV pll_full_0/pd_0/tspc_r_0/Z4 0.02fF
C185 ro_div_0/divbuf_0/OUT ro_div_0/divbuf_0/OUT5 43.38fF
C186 pll_full_0/ro_complete_0/a3 pll_full_0/ro_complete_0/cbank_1/switch_2/vin 0.09fF
C187 pd_0/tspc_r_1/Qbar pd_0/and_pd_0/Out1 0.05fF
C188 pll_full_0/divider_0/prescaler_0/tspc_0/Z1 pll_full_0/divider_0/prescaler_0/tspc_0/Z3 0.06fF
C189 pd_div_0/divider_0/prescaler_0/tspc_2/a_740_n680# pd_div_0/divider_0/prescaler_0/tspc_1/Q 0.15fF
C190 pd_div_0/divider_0/prescaler_0/tspc_2/Z2 pd_div_0/divider_0/and_0/OUT 0.06fF
C191 pll_full_0/divider_0/prescaler_0/tspc_2/a_630_n680# pll_full_0/divider_0/prescaler_0/Out 0.04fF
C192 pll_full_0/pd_0/REF pll_full_0/divbuf_1/OUT5 0.00fF
C193 ro_div_0/divider_0/tspc_1/Z1 ro_div_0/divider_0/tspc_1/Z2 1.07fF
C194 ro_div_0/divider_0/nor_1/B ro_div_0/divider_0/tspc_1/Z3 0.38fF
C195 ro_div_0/divider_0/prescaler_0/m1_2700_2190# ro_div_0/divider_0/prescaler_0/tspc_1/Z4 0.08fF
C196 ro_div_0/divider_0/prescaler_0/tspc_1/a_630_n680# ro_div_0/divider_0/prescaler_0/tspc_1/Z3 0.05fF
C197 pll_full_0/ro_complete_0/a5 pll_full_0/ro_complete_0/cbank_0/switch_0/vin 0.09fF
C198 pll_full_0/pd_0/tspc_r_0/z5 pll_full_0/pd_0/DIV 0.04fF
C199 divider_0/tspc_1/Q divider_0/tspc_2/Z4 0.15fF
C200 divider_0/prescaler_0/tspc_1/Z3 divider_0/prescaler_0/Out 0.11fF
C201 divider_0/prescaler_0/tspc_1/Z2 divider_0/clk 0.11fF
C202 divbuf_1/a_492_n240# divbuf_1/IN 0.13fF
C203 pd_div_0/pd_0/tspc_r_0/Z3 pd_div_0/pd_0/R 0.27fF
C204 ro_div_0/divider_0/tspc_2/Z1 ro_div_0/divider_0/tspc_2/Z3 0.06fF
C205 ro_div_0/divider_0/nor_0/B ro_div_0/divbuf_0/IN 0.30fF
C206 ro_div_0/divider_0/prescaler_0/tspc_2/D ro_div_0/divider_0/clk 0.29fF
C207 pll_full_0/divbuf_1/OUT3 pll_full_0/divbuf_1/OUT4 5.16fF
C208 pll_full_0/ro_complete_0/cbank_1/switch_4/vin pll_full_0/ro_complete_0/cbank_1/switch_5/vin 0.20fF
C209 divbuf_3/OUT4 divbuf_3/OUT5 20.26fF
C210 divbuf_3/OUT3 divbuf_3/OUT 0.26fF
C211 divbuf_3/a_492_n240# divbuf_3/IN 0.13fF
C212 pd_div_0/divider_0/prescaler_0/tspc_0/Z2 pd_div_0/divider_0/prescaler_0/tspc_0/Z3 0.16fF
C213 pll_full_0/divider_0/tspc_1/Z1 pll_full_0/divider_0/tspc_1/Z3 0.06fF
C214 pll_full_0/divider_0/nor_1/B pll_full_0/divider_0/tspc_1/Q 0.51fF
C215 pll_full_0/ro_complete_0/a1 pll_full_0/divider_0/clk 0.11fF
C216 pd_div_0/divider_0/tspc_0/a_630_n680# pd_div_0/divider_0/tspc_0/Z2 0.01fF
C217 pd_div_0/divider_0/prescaler_0/tspc_1/Q pd_div_0/divider_0/prescaler_0/tspc_2/D 0.32fF
C218 pd_div_0/divider_0/prescaler_0/tspc_2/a_630_n680# pd_div_0/divider_0/clk 0.01fF
C219 pll_full_0/divider_0/tspc_2/Z2 pll_full_0/divider_0/tspc_2/Z3 0.16fF
C220 pll_full_0/divider_0/nor_0/B pll_full_0/divider_0/tspc_2/Z4 0.22fF
C221 divider_0/tspc_1/a_630_n680# divider_0/tspc_1/Z3 0.05fF
C222 divider_0/prescaler_0/m1_2700_2190# divider_0/prescaler_0/tspc_1/a_630_n680# 0.19fF
C223 ro_div_0/ro_complete_0/a0 ro_div_0/ro_complete_0/cbank_2/switch_4/vin 0.13fF
C224 ro_div_0/divider_0/tspc_1/Z2 ro_div_0/divider_0/tspc_1/Z4 0.36fF
C225 ro_div_0/divider_0/prescaler_0/tspc_1/Z2 ro_div_0/divider_0/and_0/OUT 0.06fF
C226 ro_div_0/divider_0/prescaler_0/tspc_2/a_740_n680# ro_div_0/divider_0/prescaler_0/tspc_2/Z3 0.33fF
C227 ro_div_0/divider_0/prescaler_0/m1_2700_2190# ro_div_0/divider_0/prescaler_0/tspc_1/Q 0.38fF
C228 ro_div_0/divider_0/and_0/out1 ro_div_0/divider_0/and_0/Z1 0.36fF
C229 ro_complete_0/a1 ro_complete_0/cbank_1/v 0.05fF
C230 pd_div_0/divider_0/prescaler_0/tspc_1/Z1 pd_div_0/divider_0/prescaler_0/tspc_1/Z2 1.07fF
C231 pd_div_0/divider_0/prescaler_0/tspc_1/a_630_n680# pd_div_0/divider_0/prescaler_0/tspc_1/Z4 0.12fF
C232 ro_complete_0/cbank_0/switch_0/vin ro_complete_0/cbank_0/switch_1/vin 0.19fF
C233 pll_full_0/divider_0/tspc_1/Z3 pll_full_0/divider_0/tspc_1/Z4 0.65fF
C234 pll_full_0/divider_0/prescaler_0/tspc_2/a_630_n680# pll_full_0/divider_0/prescaler_0/tspc_2/Z2 0.01fF
C235 pd_div_0/divider_0/tspc_2/Z1 pd_div_0/divider_0/tspc_2/Z4 0.00fF
C236 io_clamp_high[2] io_analog[6] 0.53fF
C237 ro_div_0/divider_0/tspc_1/Q ro_div_0/divider_0/tspc_2/Z1 0.01fF
C238 ro_div_0/divider_0/prescaler_0/tspc_2/Z3 ro_div_0/divider_0/prescaler_0/tspc_2/D 0.05fF
C239 ro_div_0/divider_0/prescaler_0/tspc_1/a_630_n680# ro_div_0/divider_0/clk 0.01fF
C240 ro_div_0/divider_0/nor_1/B ro_div_0/divider_0/and_0/A 0.26fF
C241 divider_0/prescaler_0/Out divider_0/clk 0.51fF
C242 pll_full_0/ro_complete_0/cbank_0/switch_2/vin pll_full_0/ro_complete_0/a3 0.09fF
C243 cp_0/upbar cp_0/down 0.02fF
C244 pd_0/R pd_0/and_pd_0/Z1 0.02fF
C245 pd_0/tspc_r_1/Qbar1 pd_0/tspc_r_1/z5 0.20fF
C246 divbuf_2/OUT2 divbuf_2/OUT3 1.37fF
C247 pd_div_0/divider_0/tspc_1/a_630_n680# pd_div_0/divider_0/nor_0/B 0.00fF
C248 pd_div_0/divider_0/tspc_0/a_630_n680# pd_div_0/divider_0/nor_1/A 0.35fF
C249 pd_div_0/divider_0/prescaler_0/tspc_2/a_740_n680# pd_div_0/divider_0/prescaler_0/tspc_2/Z4 0.08fF
C250 pd_div_0/divider_0/prescaler_0/tspc_2/a_630_n680# pd_div_0/divider_0/prescaler_0/tspc_2/Z3 0.05fF
C251 pd_div_0/divider_0/prescaler_0/tspc_1/a_630_n680# pd_div_0/divider_0/prescaler_0/tspc_1/Q 0.04fF
C252 pll_full_0/divider_0/nor_1/B pll_full_0/divider_0/and_0/B 0.31fF
C253 pll_full_0/divider_0/tspc_1/Q pll_full_0/divider_0/tspc_2/Z2 0.14fF
C254 pll_full_0/divider_0/and_0/OUT pll_full_0/divider_0/prescaler_0/nand_0/z1 0.01fF
C255 ro_div_0/ro_complete_0/a3 ro_div_0/ro_complete_0/cbank_1/switch_2/vin 0.09fF
C256 ro_complete_0/cbank_2/switch_0/vin ro_complete_0/cbank_2/v 1.44fF
C257 pd_div_0/pd_0/UP pd_div_0/pd_0/tspc_r_1/z5 0.03fF
C258 ro_div_0/divider_0/tspc_1/a_630_n680# ro_div_0/divider_0/tspc_1/Z2 0.01fF
C259 pd_div_0/divider_0/tspc_0/Q pd_div_0/divider_0/tspc_1/a_630_n680# 0.01fF
C260 pd_div_0/divider_0/prescaler_0/tspc_0/a_740_n680# pd_div_0/divider_0/prescaler_0/tspc_0/a_630_n680# 0.19fF
C261 pll_full_0/ro_complete_0/cbank_2/switch_3/vin pll_full_0/ro_complete_0/cbank_2/switch_2/vin 0.20fF
C262 pll_full_0/ro_complete_0/cbank_0/switch_5/vin pll_full_0/ro_complete_0/cbank_0/v 1.30fF
C263 pd_0/and_pd_0/Out1 pd_0/and_pd_0/Z1 0.18fF
C264 divbuf_2/OUT2 divbuf_2/a_492_n240# 0.42fF
C265 pd_div_0/divider_0/tspc_1/Q pd_div_0/divider_0/tspc_2/Z3 0.45fF
C266 pd_div_0/divider_0/prescaler_0/tspc_2/Z4 pd_div_0/divider_0/prescaler_0/tspc_2/D 0.11fF
C267 pd_div_0/divider_0/prescaler_0/tspc_1/Z1 pd_div_0/divider_0/prescaler_0/Out 0.08fF
C268 pll_full_0/divider_0/and_0/OUT pll_full_0/divider_0/clk 0.05fF
C269 divbuf_5/OUT3 divbuf_5/OUT5 0.01fF
C270 divbuf_5/OUT2 divbuf_5/OUT 0.06fF
C271 pll_full_0/pd_0/tspc_r_0/Qbar1 pll_full_0/pd_0/tspc_r_0/z5 0.20fF
C272 pll_full_0/ro_complete_0/cbank_1/switch_1/vin pll_full_0/ro_complete_0/cbank_1/switch_0/vin 0.19fF
C273 divider_0/prescaler_0/tspc_0/Q divider_0/prescaler_0/nand_1/z1 0.01fF
C274 divider_0/prescaler_0/tspc_2/Z3 divider_0/prescaler_0/Out 0.05fF
C275 divider_0/prescaler_0/tspc_2/Z2 divider_0/clk 0.11fF
C276 ro_div_0/divider_0/tspc_1/Z1 ro_div_0/divider_0/tspc_1/Z4 0.00fF
C277 ro_div_0/divider_0/tspc_0/Z1 ro_div_0/divider_0/nor_1/A 0.03fF
C278 ro_div_0/divider_0/prescaler_0/tspc_1/Z4 ro_div_0/divider_0/prescaler_0/tspc_2/a_740_n680# 0.01fF
C279 ro_div_0/divider_0/prescaler_0/tspc_0/Z4 ro_div_0/divider_0/prescaler_0/tspc_0/D 0.11fF
C280 pd_0/DIV pd_0/R 0.51fF
C281 divbuf_3/a_492_n240# divbuf_3/OUT5 0.01fF
C282 pd_div_0/divider_0/tspc_0/Z4 pd_div_0/divider_0/tspc_0/a_630_n680# 0.12fF