* SPICE3 file created from user_analog_project_wrapper.ext - technology: sky130A

.subckt user_analog_project_wrapper gpio_analog[0] gpio_analog[10] gpio_analog[11]
+ gpio_analog[12] gpio_analog[13] gpio_analog[14] gpio_analog[15] gpio_analog[16]
+ gpio_analog[17] gpio_analog[1] gpio_analog[2] gpio_analog[3] gpio_analog[4] gpio_analog[5]
+ gpio_analog[6] gpio_analog[7] gpio_analog[8] gpio_analog[9] gpio_noesd[0] gpio_noesd[10]
+ gpio_noesd[11] gpio_noesd[12] gpio_noesd[13] gpio_noesd[14] gpio_noesd[15] gpio_noesd[16]
+ gpio_noesd[17] gpio_noesd[1] gpio_noesd[2] gpio_noesd[3] gpio_noesd[4] gpio_noesd[5]
+ gpio_noesd[6] gpio_noesd[7] gpio_noesd[8] gpio_noesd[9] io_analog[0] io_analog[10]
+ io_analog[1] io_analog[2] io_analog[3] io_analog[4] io_analog[5] io_analog[6] io_analog[7]
+ io_analog[8] io_analog[9] io_clamp_high[0] io_clamp_high[1] io_clamp_high[2] io_clamp_low[0]
+ io_clamp_low[1] io_clamp_low[2] io_in[0] io_in[10] io_in[11] io_in[12] io_in[13]
+ io_in[14] io_in[15] io_in[16] io_in[17] io_in[18] io_in[19] io_in[1] io_in[20] io_in[21]
+ io_in[22] io_in[23] io_in[24] io_in[25] io_in[26] io_in[2] io_in[3] io_in[4] io_in[5]
+ io_in[6] io_in[7] io_in[8] io_in[9] io_in_3v3[0] io_in_3v3[10] io_in_3v3[11] io_in_3v3[12]
+ io_in_3v3[13] io_in_3v3[14] io_in_3v3[15] io_in_3v3[16] io_in_3v3[17] io_in_3v3[18]
+ io_in_3v3[19] io_in_3v3[1] io_in_3v3[20] io_in_3v3[21] io_in_3v3[22] io_in_3v3[23]
+ io_in_3v3[24] io_in_3v3[25] io_in_3v3[26] io_in_3v3[2] io_in_3v3[3] io_in_3v3[4]
+ io_in_3v3[5] io_in_3v3[6] io_in_3v3[7] io_in_3v3[8] io_in_3v3[9] io_oeb[0] io_oeb[10]
+ io_oeb[11] io_oeb[12] io_oeb[13] io_oeb[14] io_oeb[15] io_oeb[16] io_oeb[17] io_oeb[18]
+ io_oeb[19] io_oeb[1] io_oeb[20] io_oeb[21] io_oeb[22] io_oeb[23] io_oeb[24] io_oeb[25]
+ io_oeb[26] io_oeb[2] io_oeb[3] io_oeb[4] io_oeb[5] io_oeb[6] io_oeb[7] io_oeb[8]
+ io_oeb[9] io_out[0] io_out[10] io_out[11] io_out[12] io_out[13] io_out[14] io_out[15]
+ io_out[16] io_out[17] io_out[18] io_out[19] io_out[1] io_out[20] io_out[21] io_out[22]
+ io_out[23] io_out[24] io_out[25] io_out[26] io_out[2] io_out[3] io_out[4] io_out[5]
+ io_out[6] io_out[7] io_out[8] io_out[9] la_data_in[0] la_data_in[100] la_data_in[101]
+ la_data_in[102] la_data_in[103] la_data_in[104] la_data_in[105] la_data_in[106]
+ la_data_in[107] la_data_in[108] la_data_in[109] la_data_in[10] la_data_in[110] la_data_in[111]
+ la_data_in[112] la_data_in[113] la_data_in[114] la_data_in[115] la_data_in[116]
+ la_data_in[117] la_data_in[118] la_data_in[119] la_data_in[11] la_data_in[120] la_data_in[121]
+ la_data_in[122] la_data_in[123] la_data_in[124] la_data_in[125] la_data_in[126]
+ la_data_in[127] la_data_in[12] la_data_in[13] la_data_in[14] la_data_in[15] la_data_in[16]
+ la_data_in[17] la_data_in[18] la_data_in[19] la_data_in[1] la_data_in[20] la_data_in[21]
+ la_data_in[22] la_data_in[23] la_data_in[24] la_data_in[25] la_data_in[26] la_data_in[27]
+ la_data_in[28] la_data_in[29] la_data_in[2] la_data_in[30] la_data_in[31] la_data_in[32]
+ la_data_in[33] la_data_in[34] la_data_in[35] la_data_in[36] la_data_in[37] la_data_in[38]
+ la_data_in[39] la_data_in[3] la_data_in[40] la_data_in[41] la_data_in[42] la_data_in[43]
+ la_data_in[44] la_data_in[45] la_data_in[46] la_data_in[47] la_data_in[48] la_data_in[49]
+ la_data_in[4] la_data_in[50] la_data_in[51] la_data_in[52] la_data_in[53] la_data_in[54]
+ la_data_in[55] la_data_in[56] la_data_in[57] la_data_in[58] la_data_in[59] la_data_in[5]
+ la_data_in[60] la_data_in[61] la_data_in[62] la_data_in[63] la_data_in[64] la_data_in[65]
+ la_data_in[66] la_data_in[67] la_data_in[68] la_data_in[69] la_data_in[6] la_data_in[70]
+ la_data_in[71] la_data_in[72] la_data_in[73] la_data_in[74] la_data_in[75] la_data_in[76]
+ la_data_in[77] la_data_in[78] la_data_in[79] la_data_in[7] la_data_in[80] la_data_in[81]
+ la_data_in[82] la_data_in[83] la_data_in[84] la_data_in[85] la_data_in[86] la_data_in[87]
+ la_data_in[88] la_data_in[89] la_data_in[8] la_data_in[90] la_data_in[91] la_data_in[92]
+ la_data_in[93] la_data_in[94] la_data_in[95] la_data_in[96] la_data_in[97] la_data_in[98]
+ la_data_in[99] la_data_in[9] la_data_out[0] la_data_out[100] la_data_out[101] la_data_out[102]
+ la_data_out[103] la_data_out[104] la_data_out[105] la_data_out[106] la_data_out[107]
+ la_data_out[108] la_data_out[109] la_data_out[10] la_data_out[110] la_data_out[111]
+ la_data_out[112] la_data_out[113] la_data_out[114] la_data_out[115] la_data_out[116]
+ la_data_out[117] la_data_out[118] la_data_out[119] la_data_out[11] la_data_out[120]
+ la_data_out[121] la_data_out[122] la_data_out[123] la_data_out[124] la_data_out[125]
+ la_data_out[126] la_data_out[127] la_data_out[12] la_data_out[13] la_data_out[14]
+ la_data_out[15] la_data_out[16] la_data_out[17] la_data_out[18] la_data_out[19]
+ la_data_out[1] la_data_out[20] la_data_out[21] la_data_out[22] la_data_out[23] la_data_out[24]
+ la_data_out[25] la_data_out[26] la_data_out[27] la_data_out[28] la_data_out[29]
+ la_data_out[2] la_data_out[30] la_data_out[31] la_data_out[32] la_data_out[33] la_data_out[34]
+ la_data_out[35] la_data_out[36] la_data_out[37] la_data_out[38] la_data_out[39]
+ la_data_out[3] la_data_out[40] la_data_out[41] la_data_out[42] la_data_out[43] la_data_out[44]
+ la_data_out[45] la_data_out[46] la_data_out[47] la_data_out[48] la_data_out[49]
+ la_data_out[4] la_data_out[50] la_data_out[51] la_data_out[52] la_data_out[53] la_data_out[54]
+ la_data_out[55] la_data_out[56] la_data_out[57] la_data_out[58] la_data_out[59]
+ la_data_out[5] la_data_out[60] la_data_out[61] la_data_out[62] la_data_out[63] la_data_out[64]
+ la_data_out[65] la_data_out[66] la_data_out[67] la_data_out[68] la_data_out[69]
+ la_data_out[6] la_data_out[70] la_data_out[71] la_data_out[72] la_data_out[73] la_data_out[74]
+ la_data_out[75] la_data_out[76] la_data_out[77] la_data_out[78] la_data_out[79]
+ la_data_out[7] la_data_out[80] la_data_out[81] la_data_out[82] la_data_out[83] la_data_out[84]
+ la_data_out[85] la_data_out[86] la_data_out[87] la_data_out[88] la_data_out[89]
+ la_data_out[8] la_data_out[90] la_data_out[91] la_data_out[92] la_data_out[93] la_data_out[94]
+ la_data_out[95] la_data_out[96] la_data_out[97] la_data_out[98] la_data_out[99]
+ la_data_out[9] la_oenb[0] la_oenb[100] la_oenb[101] la_oenb[102] la_oenb[103] la_oenb[104]
+ la_oenb[105] la_oenb[106] la_oenb[107] la_oenb[108] la_oenb[109] la_oenb[10] la_oenb[110]
+ la_oenb[111] la_oenb[112] la_oenb[113] la_oenb[114] la_oenb[115] la_oenb[116] la_oenb[117]
+ la_oenb[118] la_oenb[119] la_oenb[11] la_oenb[120] la_oenb[121] la_oenb[122] la_oenb[123]
+ la_oenb[124] la_oenb[125] la_oenb[126] la_oenb[127] la_oenb[12] la_oenb[13] la_oenb[14]
+ la_oenb[15] la_oenb[16] la_oenb[17] la_oenb[18] la_oenb[19] la_oenb[1] la_oenb[20]
+ la_oenb[21] la_oenb[22] la_oenb[23] la_oenb[24] la_oenb[25] la_oenb[26] la_oenb[27]
+ la_oenb[28] la_oenb[29] la_oenb[2] la_oenb[30] la_oenb[31] la_oenb[32] la_oenb[33]
+ la_oenb[34] la_oenb[35] la_oenb[36] la_oenb[37] la_oenb[38] la_oenb[39] la_oenb[3]
+ la_oenb[40] la_oenb[41] la_oenb[42] la_oenb[43] la_oenb[44] la_oenb[45] la_oenb[46]
+ la_oenb[47] la_oenb[48] la_oenb[49] la_oenb[4] la_oenb[50] la_oenb[51] la_oenb[52]
+ la_oenb[53] la_oenb[54] la_oenb[55] la_oenb[56] la_oenb[57] la_oenb[58] la_oenb[59]
+ la_oenb[5] la_oenb[60] la_oenb[61] la_oenb[62] la_oenb[63] la_oenb[64] la_oenb[65]
+ la_oenb[66] la_oenb[67] la_oenb[68] la_oenb[69] la_oenb[6] la_oenb[70] la_oenb[71]
+ la_oenb[72] la_oenb[73] la_oenb[74] la_oenb[75] la_oenb[76] la_oenb[77] la_oenb[78]
+ la_oenb[79] la_oenb[7] la_oenb[80] la_oenb[81] la_oenb[82] la_oenb[83] la_oenb[84]
+ la_oenb[85] la_oenb[86] la_oenb[87] la_oenb[88] la_oenb[89] la_oenb[8] la_oenb[90]
+ la_oenb[91] la_oenb[92] la_oenb[93] la_oenb[94] la_oenb[95] la_oenb[96] la_oenb[97]
+ la_oenb[98] la_oenb[99] la_oenb[9] user_clock2 user_irq[0] user_irq[1] user_irq[2]
+ vccd1 vccd2 vssa1 vdda2 vssa2 vssd1 vssd2 wb_clk_i wb_rst_i wbs_ack_o wbs_adr_i[0]
+ wbs_adr_i[10] wbs_adr_i[11] wbs_adr_i[12] wbs_adr_i[13] wbs_adr_i[14] wbs_adr_i[15]
+ wbs_adr_i[16] wbs_adr_i[17] wbs_adr_i[18] wbs_adr_i[19] wbs_adr_i[1] wbs_adr_i[20]
+ wbs_adr_i[21] wbs_adr_i[22] wbs_adr_i[23] wbs_adr_i[24] wbs_adr_i[25] wbs_adr_i[26]
+ wbs_adr_i[27] wbs_adr_i[28] wbs_adr_i[29] wbs_adr_i[2] wbs_adr_i[30] wbs_adr_i[31]
+ wbs_adr_i[3] wbs_adr_i[4] wbs_adr_i[5] wbs_adr_i[6] wbs_adr_i[7] wbs_adr_i[8] wbs_adr_i[9]
+ wbs_cyc_i wbs_dat_i[0] wbs_dat_i[10] wbs_dat_i[11] wbs_dat_i[12] wbs_dat_i[13] wbs_dat_i[14]
+ wbs_dat_i[15] wbs_dat_i[16] wbs_dat_i[17] wbs_dat_i[18] wbs_dat_i[19] wbs_dat_i[1]
+ wbs_dat_i[20] wbs_dat_i[21] wbs_dat_i[22] wbs_dat_i[23] wbs_dat_i[24] wbs_dat_i[25]
+ wbs_dat_i[26] wbs_dat_i[27] wbs_dat_i[28] wbs_dat_i[29] wbs_dat_i[2] wbs_dat_i[30]
+ wbs_dat_i[31] wbs_dat_i[3] wbs_dat_i[4] wbs_dat_i[5] wbs_dat_i[6] wbs_dat_i[7] wbs_dat_i[8]
+ wbs_dat_i[9] wbs_dat_o[0] wbs_dat_o[10] wbs_dat_o[11] wbs_dat_o[12] wbs_dat_o[13]
+ wbs_dat_o[14] wbs_dat_o[15] wbs_dat_o[16] wbs_dat_o[17] wbs_dat_o[18] wbs_dat_o[19]
+ wbs_dat_o[1] wbs_dat_o[20] wbs_dat_o[21] wbs_dat_o[22] wbs_dat_o[23] wbs_dat_o[24]
+ wbs_dat_o[25] wbs_dat_o[26] wbs_dat_o[27] wbs_dat_o[28] wbs_dat_o[29] wbs_dat_o[2]
+ wbs_dat_o[30] wbs_dat_o[31] wbs_dat_o[3] wbs_dat_o[4] wbs_dat_o[5] wbs_dat_o[6]
+ wbs_dat_o[7] wbs_dat_o[8] wbs_dat_o[9] wbs_sel_i[0] wbs_sel_i[1] wbs_sel_i[2] wbs_sel_i[3]
+ wbs_stb_i wbs_we_i
C0 io_analog[7] io_analog[9] 1.28fF
C1 ro_divider_buffered_0/divider_0/prescaler_0/tspc_2/D ro_divider_buffered_0/divider_0/prescaler_0/nand_0/z1 0.24fF
C2 div_pd_buffered_0/divider_0/tspc_1/Z3 div_pd_buffered_0/divider_0/nor_1/B 0.38fF
C3 div_pd_buffered_0/divider_0/prescaler_0/tspc_0/Z2 div_pd_buffered_0/divider_0/prescaler_0/tspc_1/Q 0.06fF
C4 div_pd_buffered_0/divider_0/prescaler_0/tspc_1/a_630_n680# div_pd_buffered_0/divider_0/prescaler_0/tspc_1/Z4 0.12fF
C5 div_pd_buffered_0/divider_0/prescaler_0/tspc_1/Z1 div_pd_buffered_0/divider_0/prescaler_0/tspc_1/Z2 1.07fF
C6 pd_buffered_0/tapered_buf_1/in1 pd_buffered_0/tapered_buf_1/in2 0.37fF
C7 pd_buffered_0/pd_0/and_pd_0/Out1 pd_buffered_0/pd_0/and_pd_0/Z1 0.18fF
C8 io_analog[4] ro_complete_buffered_0/ro_complete_0/a0 0.33fF
C9 pll_full_buffered1_0/pll_full_0/pd_0/DOWN pll_full_buffered1_0/pll_full_0/pd_0/and_pd_0/Z1 0.07fF
C10 ro_divider_buffered_0/tapered_buf_6/in2 ro_divider_buffered_0/tapered_buf_6/in5 0.84fF
C11 ro_divider_buffered_0/tapered_buf_6/in3 ro_divider_buffered_0/tapered_buf_6/in4 4.78fF
C12 divider_buffered_0/divider_0/tspc_1/Z1 divider_buffered_0/divider_0/nor_1/B 0.03fF
C13 pll_full_buffered2_0/pll_full_0/ro_complete_0/cbank_2/switch_4/vin pll_full_buffered2_0/pll_full_0/ro_complete_0/cbank_2/switch_5/vin 0.20fF
C14 ro_divider_buffered_0/tapered_buf_8/in5 ro_divider_buffered_0/ro_complete_0/a0 26.29fF
C15 pll_full_buffered1_0/pll_full_0/divider_0/prescaler_0/tspc_0/Z1 pll_full_buffered1_0/pll_full_0/divider_0/prescaler_0/tspc_0/Z3 0.06fF
C16 pll_full_buffered1_0/pll_full_0/ro_complete_0/a4 pll_full_buffered1_0/pll_full_0/ro_complete_0/cbank_2/switch_1/vin 0.09fF
C17 pll_full_buffered1_0/pll_full_0/ro_complete_0/cbank_0/switch_3/vin pll_full_buffered1_0/pll_full_0/ro_complete_0/cbank_0/v 1.30fF
C18 divider_buffered_0/divider_0/prescaler_0/tspc_0/a_630_n680# divider_buffered_0/divider_0/prescaler_0/Out 0.04fF
C19 pll_full_buffered2_0/pll_full_0/divider_0/and_0/OUT pll_full_buffered2_0/pll_full_0/div 0.01fF
C20 pll_full_buffered2_0/pll_full_0/divider_0/prescaler_0/tspc_0/D pll_full_buffered2_0/pll_full_0/divider_0/prescaler_0/nand_1/z1 0.21fF
C21 div_pd_buffered_0/tapered_buf_3/in4 div_pd_buffered_0/tapered_buf_3/in5 29.21fF
C22 pll_full_buffered1_0/pll_full_0/divider_0/nor_0/Z1 pll_full_buffered1_0/pll_full_0/divider_0/and_0/B 0.78fF
C23 pll_full_buffered1_0/pll_full_0/ro_complete_0/cbank_1/switch_1/vin pll_full_buffered1_0/pll_full_0/vco 1.46fF
C24 ro_divider_buffered_0/divider_0/prescaler_0/tspc_0/Z3 ro_divider_buffered_0/divider_0/prescaler_0/tspc_1/Q 0.13fF
C25 div_pd_buffered_0/pd_0/tspc_r_0/z5 div_pd_buffered_0/pd_0/UP 0.03fF
C26 ro_divider_buffered_0/divider_0/prescaler_0/tspc_2/D ro_divider_buffered_0/divider_0/clk 0.26fF
C27 div_pd_buffered_0/tapered_buf_1/in2 div_pd_buffered_0/tapered_buf_1/in5 0.84fF
C28 div_pd_buffered_0/tapered_buf_1/in3 div_pd_buffered_0/tapered_buf_1/in4 4.78fF
C29 div_pd_buffered_0/divider_0/prescaler_0/tspc_0/a_740_n680# div_pd_buffered_0/divider_0/clk 0.14fF
C30 div_pd_buffered_0/divider_0/nor_1/B div_pd_buffered_0/divider_0/tspc_1/Q 0.51fF
C31 div_pd_buffered_0/divider_0/prescaler_0/tspc_2/a_630_n680# div_pd_buffered_0/divider_0/prescaler_0/tspc_2/Z3 0.05fF
C32 div_pd_buffered_0/divider_0/prescaler_0/tspc_2/a_740_n680# div_pd_buffered_0/divider_0/prescaler_0/tspc_2/Z4 0.08fF
C33 div_pd_buffered_0/divider_0/prescaler_0/tspc_1/a_630_n680# div_pd_buffered_0/divider_0/prescaler_0/tspc_1/Q 0.04fF
C34 pll_full_buffered2_0/tapered_buf_3/in pll_full_buffered2_0/pll_full_0/pd_0/and_pd_0/Z1 0.07fF
C35 ro_complete_buffered_0/ro_complete_0/a3 ro_complete_buffered_0/ro_complete_0/cbank_2/switch_1/vin 0.13fF
C36 ro_complete_buffered_0/ro_complete_0/cbank_2/switch_3/vin ro_complete_buffered_0/ro_complete_0/cbank_2/switch_2/vin 0.20fF
C37 pll_full_buffered2_0/tapered_buf_1/in1 io_analog[9] 0.19fF
C38 pll_full_buffered2_0/pll_full_0/divider_0/prescaler_0/tspc_0/Z1 pll_full_buffered2_0/pll_full_0/divider_0/prescaler_0/tspc_0/Z3 0.06fF
C39 pll_full_buffered2_0/pll_full_0/ro_complete_0/a4 pll_full_buffered2_0/pll_full_0/ro_complete_0/cbank_2/switch_1/vin 0.09fF
C40 pll_full_buffered2_0/pll_full_0/ro_complete_0/cbank_0/switch_3/vin pll_full_buffered2_0/pll_full_0/ro_complete_0/cbank_0/v 1.30fF
C41 pll_full_buffered2_0/tapered_buf_4/in3 pll_full_buffered2_0/tapered_buf_4/in5 2.89fF
C42 ashish_0/b ashish_0/a 7.45fF
C43 gpio_noesd[9] gpio_noesd[8] 1.97fF
C44 io_analog[3] ro_divider_buffered_0/ro_complete_0/a1 0.19fF
C45 pll_full_buffered2_0/pll_full_0/divider_0/nor_0/Z1 pll_full_buffered2_0/pll_full_0/divider_0/and_0/B 0.78fF
C46 pll_full_buffered2_0/pll_full_0/ro_complete_0/cbank_1/switch_1/vin pll_full_buffered2_0/pll_full_0/vco 1.46fF
C47 ro_divider_buffered_0/ro_complete_0/a5 ro_divider_buffered_0/ro_complete_0/cbank_1/switch_0/vin 0.09fF
C48 ro_divider_buffered_0/ro_complete_0/cbank_0/switch_4/vin ro_divider_buffered_0/ro_complete_0/cbank_0/v 1.30fF
C49 pll_full_buffered1_0/pll_full_0/ro_complete_0/cbank_2/switch_1/vin pll_full_buffered1_0/pll_full_0/ro_complete_0/cbank_2/switch_2/vin 0.20fF
C50 divider_buffered_0/tapered_buf_0/in5 divider_buffered_0/tapered_buf_0/in3 2.89fF
C51 divider_buffered_0/divider_0/nor_0/Z1 divider_buffered_0/divider_0/nor_0/B 0.06fF
C52 pll_full_buffered1_0/pll_full_0/divider_0/prescaler_0/tspc_2/Z2 pll_full_buffered1_0/pll_full_0/divider_0/prescaler_0/tspc_2/Z4 0.36fF
C53 ro_divider_buffered_0/divider_0/prescaler_0/Out ro_divider_buffered_0/divider_0/tspc_0/Z3 0.45fF
C54 ro_divider_buffered_0/ro_complete_0/a3 ro_divider_buffered_0/divider_0/clk 0.05fF
C55 div_pd_buffered_0/pd_0/and_pd_0/Z1 div_pd_buffered_0/pd_0/UP 0.06fF
C56 pll_full_buffered2_0/pll_full_0/pd_0/tspc_r_0/Z3 pll_full_buffered2_0/pll_full_0/pd_0/tspc_r_0/Z4 0.20fF
C57 pll_full_buffered2_0/pll_full_0/ref pll_full_buffered2_0/pll_full_0/pd_0/tspc_r_0/z5 0.04fF
C58 div_pd_buffered_0/divider_0/tspc_1/a_630_n680# div_pd_buffered_0/divider_0/tspc_0/Q 0.01fF
C59 div_pd_buffered_0/divider_0/nor_1/A div_pd_buffered_0/divider_0/and_0/A 0.01fF
C60 gpio_analog[6] ro_complete_buffered_0/tapered_buf_0/in1 0.19fF
C61 ro_complete_buffered_0/ro_complete_0/a4 ro_complete_buffered_0/ro_complete_0/cbank_2/v 0.05fF
C62 ro_complete_buffered_0/ro_complete_0/cbank_1/switch_4/vin ro_complete_buffered_0/DIGITAL_BUFFER_v1_0/in 1.30fF
C63 pll_full_buffered2_0/pll_full_0/ro_complete_0/cbank_2/switch_1/vin pll_full_buffered2_0/pll_full_0/ro_complete_0/cbank_2/switch_2/vin 0.20fF
C64 ro_divider_buffered_0/tapered_buf_4/in3 ro_divider_buffered_0/tapered_buf_4/in5 2.89fF
C65 pd_buffered_0/tapered_buf_2/in1 pd_buffered_0/tapered_buf_2/in2 0.37fF
C66 divider_buffered_0/divider_0/prescaler_0/tspc_0/Z2 divider_buffered_0/divider_0/prescaler_0/tspc_0/Z3 0.16fF
C67 divider_buffered_0/divider_0/tspc_1/a_630_n680# divider_buffered_0/divider_0/nor_0/B 0.00fF
C68 pll_full_buffered2_0/pll_full_0/divider_0/prescaler_0/tspc_2/Z2 pll_full_buffered2_0/pll_full_0/divider_0/prescaler_0/tspc_2/Z4 0.36fF
C69 ro_divider_buffered_0/tapered_buf_0/in4 ro_divider_buffered_0/tapered_buf_0/in3 4.78fF
C70 ro_divider_buffered_0/divider_0/prescaler_0/Out ro_divider_buffered_0/divider_0/prescaler_0/m1_2700_2190# 0.11fF
C71 cp_buffered_0/cp_0/a_1710_0# cp_buffered_0/cp_0/out 0.84fF
C72 gpio_noesd[7] io_analog[9] 1.42fF
C73 ro_divider_buffered_0/divider_0/prescaler_0/tspc_2/Z3 ro_divider_buffered_0/divider_0/prescaler_0/tspc_2/D 0.05fF
C74 io_analog[3] ro_complete_buffered_0/ro_complete_0/a0 0.20fF
C75 filter_buffered_0/tapered_buf_1/in4 filter_buffered_0/tapered_buf_1/in5 29.21fF
C76 ro_complete_buffered_0/ro_complete_0/cbank_2/switch_2/vin ro_complete_buffered_0/ro_complete_0/cbank_2/v 1.30fF
C77 pll_full_buffered1_0/pll_full_0/pd_0/tspc_r_0/Qbar pll_full_buffered1_0/pll_full_0/pd_0/and_pd_0/Z1 0.02fF
C78 pll_full_buffered1_0/pll_full_0/pd_0/tspc_r_1/Z3 pll_full_buffered1_0/pll_full_0/pd_0/tspc_r_1/z5 0.11fF
C79 pll_full_buffered1_0/pll_full_0/ro_complete_0/a4 pll_full_buffered1_0/pll_full_0/ro_complete_0/cbank_1/switch_1/vin 0.09fF
C80 ro_divider_buffered_0/ro_complete_0/a2 ro_divider_buffered_0/ro_complete_0/cbank_1/switch_3/vin 0.09fF
C81 io_analog[8] ro_complete_buffered_0/tapered_buf_2/in1 0.19fF
C82 ro_divider_buffered_0/tapered_buf_0/in5 ro_divider_buffered_0/tapered_buf_0/in3 2.89fF
C83 ro_divider_buffered_0/divider_0/tspc_1/Z1 ro_divider_buffered_0/divider_0/tspc_1/Z3 0.06fF
C84 ro_divider_buffered_0/divider_0/prescaler_0/Out ro_divider_buffered_0/divider_0/tspc_0/Z2 0.11fF
C85 ro_divider_buffered_0/divider_0/prescaler_0/tspc_0/a_740_n680# ro_divider_buffered_0/divider_0/prescaler_0/tspc_1/Z2 0.01fF
C86 pll_full_buffered1_0/pll_full_0/divider_0/tspc_1/Z3 pll_full_buffered1_0/pll_full_0/divider_0/tspc_1/a_630_n680# 0.05fF
C87 pll_full_buffered1_0/pll_full_0/divider_0/tspc_1/Z1 pll_full_buffered1_0/pll_full_0/divider_0/nor_1/B 0.03fF
C88 pll_full_buffered1_0/pll_full_0/divider_0/prescaler_0/tspc_1/a_630_n680# pll_full_buffered1_0/pll_full_0/divider_0/prescaler_0/tspc_1/Z3 0.05fF
C89 pll_full_buffered1_0/pll_full_0/divider_0/prescaler_0/m1_2700_2190# pll_full_buffered1_0/pll_full_0/divider_0/prescaler_0/tspc_1/Z4 0.08fF
C90 divider_buffered_0/divider_0/prescaler_0/tspc_2/Z2 divider_buffered_0/divider_0/prescaler_0/tspc_2/D 0.09fF
C91 div_pd_buffered_0/pd_0/tspc_r_1/Qbar1 div_pd_buffered_0/pd_0/tspc_r_1/z5 0.20fF
C92 ro_complete_buffered_0/tapered_buf_5/in1 ro_complete_buffered_0/tapered_buf_5/in2 0.37fF
C93 ro_divider_buffered_0/divider_0/tspc_1/Q ro_divider_buffered_0/divider_0/tspc_2/Z4 0.15fF
C94 div_pd_buffered_0/divider_0/tspc_0/Z1 div_pd_buffered_0/divider_0/tspc_0/Z3 0.06fF
C95 ro_complete_buffered_0/ro_complete_0/cbank_1/switch_1/vin ro_complete_buffered_0/ro_complete_0/a3 0.13fF
C96 ro_complete_buffered_0/ro_complete_0/cbank_2/switch_3/vin ro_complete_buffered_0/ro_complete_0/a1 0.14fF
C97 pll_full_buffered2_0/pll_full_0/pd_0/tspc_r_0/Qbar pll_full_buffered2_0/pll_full_0/pd_0/and_pd_0/Z1 0.02fF
C98 pll_full_buffered2_0/pll_full_0/pd_0/tspc_r_1/Z3 pll_full_buffered2_0/pll_full_0/pd_0/tspc_r_1/z5 0.11fF
C99 div_pd_buffered_0/divider_0/and_0/B div_pd_buffered_0/divider_0/and_0/Z1 0.07fF
C100 pll_full_buffered1_0/DIGITAL_BUFFER_v1_0/in5 gpio_noesd[14] 26.29fF
C101 pll_full_buffered2_0/pll_full_0/ro_complete_0/a4 pll_full_buffered2_0/pll_full_0/ro_complete_0/cbank_1/switch_1/vin 0.09fF
C102 pll_full_buffered2_0/tapered_buf_4/in2 pll_full_buffered2_0/tapered_buf_4/in3 1.27fF
C103 pll_full_buffered1_0/pll_full_0/pd_0/R pll_full_buffered1_0/pll_full_0/pd_0/UP 0.45fF
C104 gpio_analog[5] ro_divider_buffered_0/ro_complete_0/a4 0.13fF
C105 pll_full_buffered2_0/pll_full_0/divider_0/tspc_1/Z3 pll_full_buffered2_0/pll_full_0/divider_0/tspc_1/a_630_n680# 0.05fF
C106 pll_full_buffered2_0/pll_full_0/divider_0/tspc_1/Z1 pll_full_buffered2_0/pll_full_0/divider_0/nor_1/B 0.03fF
C107 pll_full_buffered2_0/pll_full_0/divider_0/prescaler_0/tspc_1/a_630_n680# pll_full_buffered2_0/pll_full_0/divider_0/prescaler_0/tspc_1/Z3 0.05fF
C108 pll_full_buffered2_0/pll_full_0/divider_0/prescaler_0/m1_2700_2190# pll_full_buffered2_0/pll_full_0/divider_0/prescaler_0/tspc_1/Z4 0.08fF
C109 pll_full_buffered1_0/pll_full_0/ro_complete_0/cbank_2/switch_3/vin pll_full_buffered1_0/pll_full_0/ro_complete_0/cbank_2/switch_4/vin 0.20fF
C110 ro_divider_buffered_0/ro_complete_0/a4 ro_divider_buffered_0/ro_complete_0/a3 2.04fF
C111 io_clamp_low[0] io_clamp_high[0] 0.53fF
C112 divider_buffered_0/divider_0/prescaler_0/tspc_0/Z3 divider_buffered_0/divider_0/prescaler_0/tspc_0/Z1 0.06fF
C113 ro_divider_buffered_0/divider_0/tspc_0/Z4 ro_divider_buffered_0/divider_0/tspc_0/a_630_n680# 0.12fF
C114 pll_full_buffered1_0/pll_full_0/divider_0/prescaler_0/tspc_1/Z2 pll_full_buffered1_0/pll_full_0/divider_0/and_0/OUT 0.06fF
C115 pll_full_buffered1_0/pll_full_0/divider_0/prescaler_0/m1_2700_2190# pll_full_buffered1_0/pll_full_0/divider_0/prescaler_0/tspc_1/Q 0.38fF
C116 pll_full_buffered1_0/pll_full_0/divider_0/prescaler_0/tspc_0/Z4 pll_full_buffered1_0/pll_full_0/divider_0/prescaler_0/tspc_0/D 0.11fF
C117 pll_full_buffered1_0/pll_full_0/ro_complete_0/cbank_1/switch_4/vin pll_full_buffered1_0/pll_full_0/vco 1.46fF
C118 divider_buffered_0/divider_0/prescaler_0/tspc_1/Q divider_buffered_0/divider_0/prescaler_0/nand_1/z1 0.22fF
C119 divider_buffered_0/divider_0/prescaler_0/tspc_2/Q divider_buffered_0/divider_0/prescaler_0/tspc_0/D 0.04fF
C120 div_pd_buffered_0/pd_0/and_pd_0/Out1 div_pd_buffered_0/pd_0/and_pd_0/Z1 0.18fF
C121 pll_full_buffered1_0/pll_full_0/divider_0/and_0/out1 pll_full_buffered1_0/pll_full_0/divider_0/and_0/A 0.01fF
C122 pll_full_buffered1_0/pll_full_0/divider_0/tspc_0/Z3 pll_full_buffered1_0/pll_full_0/divider_0/tspc_0/Q 0.05fF
C123 ro_complete_buffered_0/tapered_buf_6/in4 ro_complete_buffered_0/tapered_buf_6/in5 29.21fF
C124 ro_divider_buffered_0/divider_0/tspc_2/Z2 ro_divider_buffered_0/divider_0/tspc_2/Z4 0.36fF
C125 ro_divider_buffered_0/divider_0/tspc_2/Z3 ro_divider_buffered_0/divider_0/Out 0.05fF
C126 div_pd_buffered_0/divider_0/tspc_1/Z3 div_pd_buffered_0/divider_0/tspc_0/Q 0.45fF
C127 div_pd_buffered_0/divider_0/prescaler_0/tspc_2/a_740_n680# div_pd_buffered_0/divider_0/prescaler_0/tspc_2/Q 0.20fF
C128 div_pd_buffered_0/divider_0/prescaler_0/tspc_2/Z2 div_pd_buffered_0/divider_0/prescaler_0/tspc_2/D 0.09fF
C129 ro_complete_buffered_0/ro_complete_0/cbank_1/switch_4/vin ro_complete_buffered_0/ro_complete_0/a0 0.13fF
C130 ro_complete_buffered_0/ro_complete_0/a5 ro_complete_buffered_0/ro_complete_0/cbank_2/switch_0/vin 0.09fF
C131 pll_full_buffered2_0/pll_full_0/pd_0/R pll_full_buffered2_0/pll_full_0/pd_0/UP 0.45fF
C132 gpio_noesd[14] gpio_noesd[10] 2.89fF
C133 cp_buffered_0/tapered_buf_2/in4 cp_buffered_0/tapered_buf_2/in5 29.21fF
C134 pll_full_buffered1_0/pll_full_0/pd_0/tspc_r_0/Z3 pll_full_buffered1_0/pll_full_0/pd_0/tspc_r_0/Z2 0.25fF
C135 pll_full_buffered2_0/pll_full_0/ro_complete_0/cbank_2/switch_3/vin pll_full_buffered2_0/pll_full_0/ro_complete_0/cbank_2/switch_4/vin 0.20fF
C136 divider_buffered_0/tapered_buf_2/in3 divider_buffered_0/tapered_buf_2/in4 4.78fF
C137 pll_full_buffered2_0/pll_full_0/divider_0/prescaler_0/tspc_1/Z2 pll_full_buffered2_0/pll_full_0/divider_0/and_0/OUT 0.06fF
C138 pll_full_buffered2_0/pll_full_0/divider_0/prescaler_0/m1_2700_2190# pll_full_buffered2_0/pll_full_0/divider_0/prescaler_0/tspc_1/Q 0.38fF
C139 pll_full_buffered2_0/pll_full_0/divider_0/prescaler_0/tspc_0/Z4 pll_full_buffered2_0/pll_full_0/divider_0/prescaler_0/tspc_0/D 0.11fF
C140 pll_full_buffered2_0/pll_full_0/ro_complete_0/cbank_1/switch_4/vin pll_full_buffered2_0/pll_full_0/vco 1.46fF
C141 ro_divider_buffered_0/tapered_buf_8/in3 ro_divider_buffered_0/tapered_buf_8/in5 2.89fF
C142 ro_divider_buffered_0/tapered_buf_6/in5 ro_divider_buffered_0/ro_complete_0/a2 26.29fF
C143 pll_full_buffered1_0/pll_full_0/divider_0/prescaler_0/Out pll_full_buffered1_0/pll_full_0/divider_0/prescaler_0/tspc_1/Z1 0.08fF
C144 pll_full_buffered1_0/pll_full_0/ro_complete_0/a5 pll_full_buffered1_0/pll_full_0/ro_complete_0/cbank_2/v 0.08fF
C145 pll_full_buffered1_0/pll_full_0/ro_complete_0/a0 pll_full_buffered1_0/pll_full_0/ro_complete_0/cbank_1/switch_5/vin 0.09fF
C146 pll_full_buffered1_0/pll_full_0/pd_0/R pll_full_buffered1_0/pll_full_0/div 0.51fF
C147 pll_full_buffered2_0/tapered_buf_5/in2 pll_full_buffered2_0/tapered_buf_5/in1 0.37fF
C148 pll_full_buffered2_0/tapered_buf_2/in3 pll_full_buffered2_0/tapered_buf_2/in5 2.89fF
C149 ro_divider_buffered_0/ro_complete_0/a1 ro_divider_buffered_0/ro_complete_0/a0 3.46fF
C150 ro_divider_buffered_0/divider_0/prescaler_0/tspc_0/Z3 ro_divider_buffered_0/divider_0/prescaler_0/tspc_0/a_740_n680# 0.33fF
C151 ro_divider_buffered_0/ro_complete_0/a3 ro_divider_buffered_0/ro_complete_0/cbank_2/switch_2/vin 0.09fF
C152 pll_full_buffered2_0/pll_full_0/divider_0/and_0/out1 pll_full_buffered2_0/pll_full_0/divider_0/and_0/A 0.01fF
C153 pll_full_buffered2_0/pll_full_0/divider_0/tspc_0/Z3 pll_full_buffered2_0/pll_full_0/divider_0/tspc_0/Q 0.05fF
C154 ro_divider_buffered_0/divider_0/prescaler_0/tspc_2/Z1 ro_divider_buffered_0/divider_0/prescaler_0/tspc_2/Z3 0.06fF
C155 pll_full_buffered1_0/pll_full_0/divider_0/prescaler_0/tspc_1/a_630_n680# pll_full_buffered1_0/pll_full_0/vco 0.01fF
C156 divider_buffered_0/divider_0/tspc_2/Z1 divider_buffered_0/divider_0/tspc_2/Z4 0.00fF
C157 gpio_noesd[14] gpio_noesd[8] 2.61fF
C158 gpio_analog[3] gpio_analog[5] 1.06fF
C159 div_pd_buffered_0/divider_0/prescaler_0/Out div_pd_buffered_0/divider_0/prescaler_0/tspc_1/Z4 0.28fF
C160 div_pd_buffered_0/divider_0/tspc_2/a_630_n680# div_pd_buffered_0/divider_0/nor_0/B 0.35fF
C161 ro_complete_buffered_0/DIGITAL_BUFFER_v1_0/in5 ro_complete_buffered_0/DIGITAL_BUFFER_v1_0/in3 3.73fF
C162 pll_full_buffered2_0/pll_full_0/pd_0/tspc_r_0/Z3 pll_full_buffered2_0/pll_full_0/pd_0/R 0.29fF
C163 div_pd_buffered_0/divider_0/prescaler_0/tspc_2/Q div_pd_buffered_0/divider_0/prescaler_0/tspc_0/D 0.04fF
C164 cp_buffered_0/tapered_buf_0/in3 cp_buffered_0/tapered_buf_0/in5 2.89fF
C165 ro_complete_buffered_0/ro_complete_0/a1 ro_complete_buffered_0/ro_complete_0/cbank_2/v 0.05fF
C166 divider_buffered_0/divider_0/prescaler_0/tspc_1/Z4 divider_buffered_0/divider_0/prescaler_0/tspc_1/Z1 0.00fF
C167 divider_buffered_0/divider_0/prescaler_0/tspc_0/Z2 divider_buffered_0/divider_0/clk 0.11fF
C168 pll_full_buffered2_0/tapered_buf_5/in2 pll_full_buffered2_0/tapered_buf_5/in5 0.84fF
C169 ro_divider_buffered_0/tapered_buf_5/in1 ro_divider_buffered_0/tapered_buf_5/in2 0.37fF
C170 pll_full_buffered2_0/pll_full_0/divider_0/prescaler_0/Out pll_full_buffered2_0/pll_full_0/divider_0/prescaler_0/tspc_1/Z1 0.08fF
C171 pll_full_buffered2_0/pll_full_0/ro_complete_0/a5 pll_full_buffered2_0/pll_full_0/ro_complete_0/cbank_2/v 0.08fF
C172 pll_full_buffered2_0/pll_full_0/ro_complete_0/a0 pll_full_buffered2_0/pll_full_0/ro_complete_0/cbank_1/switch_5/vin 0.09fF
C173 pll_full_buffered2_0/pll_full_0/pd_0/R pll_full_buffered2_0/pll_full_0/div 0.51fF
C174 pll_full_buffered1_0/pll_full_0/ro_complete_0/cbank_0/switch_1/vin pll_full_buffered1_0/pll_full_0/ro_complete_0/cbank_0/switch_2/vin 0.20fF
C175 io_analog[9] gpio_analog[10] 3.28fF
C176 pll_full_buffered2_0/pll_full_0/divider_0/prescaler_0/tspc_1/a_630_n680# pll_full_buffered2_0/pll_full_0/vco 0.01fF
C177 pd_buffered_0/pd_0/tspc_r_1/Z3 pd_buffered_0/pd_0/tspc_r_1/Z2 0.25fF
C178 pd_buffered_0/pd_0/tspc_r_0/Z1 pd_buffered_0/pd_0/REF 0.17fF
C179 pll_full_buffered1_0/pll_full_0/ro_complete_0/cbank_2/switch_4/vin pll_full_buffered1_0/pll_full_0/ro_complete_0/cbank_2/v 1.30fF
C180 div_pd_buffered_0/tapered_buf_2/in2 div_pd_buffered_0/tapered_buf_2/in3 1.27fF
C181 ro_divider_buffered_0/ro_complete_0/cbank_2/switch_1/vin ro_divider_buffered_0/ro_complete_0/cbank_2/v 1.30fF
C182 divider_buffered_0/divider_0/prescaler_0/tspc_2/a_630_n680# divider_buffered_0/divider_0/prescaler_0/tspc_2/Z4 0.12fF
C183 divider_buffered_0/divider_0/prescaler_0/tspc_2/Z1 divider_buffered_0/divider_0/prescaler_0/tspc_2/Z2 1.07fF
C184 div_pd_buffered_0/pd_0/DIV div_pd_buffered_0/pd_0/tspc_r_1/Qbar1 0.12fF
C185 ro_divider_buffered_0/tapered_buf_1/in1 ro_divider_buffered_0/tapered_buf_1/in2 0.37fF
C186 ro_divider_buffered_0/divider_0/nor_1/B ro_divider_buffered_0/divider_0/tspc_2/Z4 0.02fF
C187 ro_divider_buffered_0/divider_0/and_0/OUT ro_divider_buffered_0/divider_0/prescaler_0/tspc_2/Q 0.04fF
C188 ro_divider_buffered_0/divider_0/prescaler_0/tspc_1/Z3 ro_divider_buffered_0/divider_0/clk 0.45fF
C189 pd_buffered_0/tapered_buf_3/in2 pd_buffered_0/tapered_buf_3/in1 0.37fF
C190 gpio_noesd[7] gpio_analog[10] 0.77fF
C191 div_pd_buffered_0/divider_0/tspc_0/a_630_n680# div_pd_buffered_0/divider_0/nor_1/B 0.01fF
C192 div_pd_buffered_0/divider_0/prescaler_0/Out div_pd_buffered_0/divider_0/prescaler_0/tspc_1/Q 0.91fF
C193 div_pd_buffered_0/divider_0/prescaler_0/tspc_1/Z2 div_pd_buffered_0/divider_0/prescaler_0/tspc_1/Z3 0.16fF
C194 divider_buffered_0/tapered_buf_1/in3 divider_buffered_0/tapered_buf_1/in5 2.89fF
C195 io_analog[4] gpio_analog[6] 0.64fF
C196 io_analog[5] ro_complete_buffered_0/ro_complete_0/a1 0.22fF
C197 pll_full_buffered2_0/pll_full_0/ro_complete_0/cbank_0/switch_1/vin pll_full_buffered2_0/pll_full_0/ro_complete_0/cbank_0/switch_2/vin 0.20fF
C198 io_analog[6] io_analog[7] 1.12fF
C199 io_analog[5] io_analog[8] 1.24fF
C200 ro_divider_buffered_0/tapered_buf_6/in4 ro_divider_buffered_0/tapered_buf_6/in5 29.21fF
C201 pll_full_buffered1_0/pll_full_0/pd_0/R pll_full_buffered1_0/pll_full_0/pd_0/and_pd_0/Out1 0.33fF
C202 divider_buffered_0/divider_0/tspc_1/Z3 divider_buffered_0/divider_0/nor_1/B 0.38fF