* SPICE3 file created from user_analog_project_wrapper.ext - technology: sky130A

.subckt user_analog_project_wrapper gpio_analog[0] gpio_analog[10] gpio_analog[11]
+ gpio_analog[12] gpio_analog[13] gpio_analog[14] gpio_analog[15] gpio_analog[16]
+ gpio_analog[17] gpio_analog[1] gpio_analog[2] gpio_analog[3] gpio_analog[4] gpio_analog[5]
+ gpio_analog[6] gpio_analog[7] gpio_analog[8] gpio_analog[9] gpio_noesd[0] gpio_noesd[10]
+ gpio_noesd[11] gpio_noesd[12] gpio_noesd[13] gpio_noesd[14] gpio_noesd[15] gpio_noesd[16]
+ gpio_noesd[17] gpio_noesd[1] gpio_noesd[2] gpio_noesd[3] gpio_noesd[4] gpio_noesd[5]
+ gpio_noesd[6] gpio_noesd[7] gpio_noesd[8] gpio_noesd[9] io_analog[0] io_analog[10]
+ io_analog[1] io_analog[2] io_analog[3] io_analog[4] io_analog[5] io_analog[6] io_analog[7]
+ io_analog[8] io_analog[9] io_clamp_high[0] io_clamp_high[1] io_clamp_high[2] io_clamp_low[0]
+ io_clamp_low[1] io_clamp_low[2] io_in[0] io_in[10] io_in[11] io_in[12] io_in[13]
+ io_in[14] io_in[15] io_in[16] io_in[17] io_in[18] io_in[19] io_in[1] io_in[20] io_in[21]
+ io_in[22] io_in[23] io_in[24] io_in[25] io_in[26] io_in[2] io_in[3] io_in[4] io_in[5]
+ io_in[6] io_in[7] io_in[8] io_in[9] io_in_3v3[0] io_in_3v3[10] io_in_3v3[11] io_in_3v3[12]
+ io_in_3v3[13] io_in_3v3[14] io_in_3v3[15] io_in_3v3[16] io_in_3v3[17] io_in_3v3[18]
+ io_in_3v3[19] io_in_3v3[1] io_in_3v3[20] io_in_3v3[21] io_in_3v3[22] io_in_3v3[23]
+ io_in_3v3[24] io_in_3v3[25] io_in_3v3[26] io_in_3v3[2] io_in_3v3[3] io_in_3v3[4]
+ io_in_3v3[5] io_in_3v3[6] io_in_3v3[7] io_in_3v3[8] io_in_3v3[9] io_oeb[0] io_oeb[10]
+ io_oeb[11] io_oeb[12] io_oeb[13] io_oeb[14] io_oeb[15] io_oeb[16] io_oeb[17] io_oeb[18]
+ io_oeb[19] io_oeb[1] io_oeb[20] io_oeb[21] io_oeb[22] io_oeb[23] io_oeb[24] io_oeb[25]
+ io_oeb[26] io_oeb[2] io_oeb[3] io_oeb[4] io_oeb[5] io_oeb[6] io_oeb[7] io_oeb[8]
+ io_oeb[9] io_out[0] io_out[10] io_out[11] io_out[12] io_out[13] io_out[14] io_out[15]
+ io_out[16] io_out[17] io_out[18] io_out[19] io_out[1] io_out[20] io_out[21] io_out[22]
+ io_out[23] io_out[24] io_out[25] io_out[26] io_out[2] io_out[3] io_out[4] io_out[5]
+ io_out[6] io_out[7] io_out[8] io_out[9] la_data_in[0] la_data_in[100] la_data_in[101]
+ la_data_in[102] la_data_in[103] la_data_in[104] la_data_in[105] la_data_in[106]
+ la_data_in[107] la_data_in[108] la_data_in[109] la_data_in[10] la_data_in[110] la_data_in[111]
+ la_data_in[112] la_data_in[113] la_data_in[114] la_data_in[115] la_data_in[116]
+ la_data_in[117] la_data_in[118] la_data_in[119] la_data_in[11] la_data_in[120] la_data_in[121]
+ la_data_in[122] la_data_in[123] la_data_in[124] la_data_in[125] la_data_in[126]
+ la_data_in[127] la_data_in[12] la_data_in[13] la_data_in[14] la_data_in[15] la_data_in[16]
+ la_data_in[17] la_data_in[18] la_data_in[19] la_data_in[1] la_data_in[20] la_data_in[21]
+ la_data_in[22] la_data_in[23] la_data_in[24] la_data_in[25] la_data_in[26] la_data_in[27]
+ la_data_in[28] la_data_in[29] la_data_in[2] la_data_in[30] la_data_in[31] la_data_in[32]
+ la_data_in[33] la_data_in[34] la_data_in[35] la_data_in[36] la_data_in[37] la_data_in[38]
+ la_data_in[39] la_data_in[3] la_data_in[40] la_data_in[41] la_data_in[42] la_data_in[43]
+ la_data_in[44] la_data_in[45] la_data_in[46] la_data_in[47] la_data_in[48] la_data_in[49]
+ la_data_in[4] la_data_in[50] la_data_in[51] la_data_in[52] la_data_in[53] la_data_in[54]
+ la_data_in[55] la_data_in[56] la_data_in[57] la_data_in[58] la_data_in[59] la_data_in[5]
+ la_data_in[60] la_data_in[61] la_data_in[62] la_data_in[63] la_data_in[64] la_data_in[65]
+ la_data_in[66] la_data_in[67] la_data_in[68] la_data_in[69] la_data_in[6] la_data_in[70]
+ la_data_in[71] la_data_in[72] la_data_in[73] la_data_in[74] la_data_in[75] la_data_in[76]
+ la_data_in[77] la_data_in[78] la_data_in[79] la_data_in[7] la_data_in[80] la_data_in[81]
+ la_data_in[82] la_data_in[83] la_data_in[84] la_data_in[85] la_data_in[86] la_data_in[87]
+ la_data_in[88] la_data_in[89] la_data_in[8] la_data_in[90] la_data_in[91] la_data_in[92]
+ la_data_in[93] la_data_in[94] la_data_in[95] la_data_in[96] la_data_in[97] la_data_in[98]
+ la_data_in[99] la_data_in[9] la_data_out[0] la_data_out[100] la_data_out[101] la_data_out[102]
+ la_data_out[103] la_data_out[104] la_data_out[105] la_data_out[106] la_data_out[107]
+ la_data_out[108] la_data_out[109] la_data_out[10] la_data_out[110] la_data_out[111]
+ la_data_out[112] la_data_out[113] la_data_out[114] la_data_out[115] la_data_out[116]
+ la_data_out[117] la_data_out[118] la_data_out[119] la_data_out[11] la_data_out[120]
+ la_data_out[121] la_data_out[122] la_data_out[123] la_data_out[124] la_data_out[125]
+ la_data_out[126] la_data_out[127] la_data_out[12] la_data_out[13] la_data_out[14]
+ la_data_out[15] la_data_out[16] la_data_out[17] la_data_out[18] la_data_out[19]
+ la_data_out[1] la_data_out[20] la_data_out[21] la_data_out[22] la_data_out[23] la_data_out[24]
+ la_data_out[25] la_data_out[26] la_data_out[27] la_data_out[28] la_data_out[29]
+ la_data_out[2] la_data_out[30] la_data_out[31] la_data_out[32] la_data_out[33] la_data_out[34]
+ la_data_out[35] la_data_out[36] la_data_out[37] la_data_out[38] la_data_out[39]
+ la_data_out[3] la_data_out[40] la_data_out[41] la_data_out[42] la_data_out[43] la_data_out[44]
+ la_data_out[45] la_data_out[46] la_data_out[47] la_data_out[48] la_data_out[49]
+ la_data_out[4] la_data_out[50] la_data_out[51] la_data_out[52] la_data_out[53] la_data_out[54]
+ la_data_out[55] la_data_out[56] la_data_out[57] la_data_out[58] la_data_out[59]
+ la_data_out[5] la_data_out[60] la_data_out[61] la_data_out[62] la_data_out[63] la_data_out[64]
+ la_data_out[65] la_data_out[66] la_data_out[67] la_data_out[68] la_data_out[69]
+ la_data_out[6] la_data_out[70] la_data_out[71] la_data_out[72] la_data_out[73] la_data_out[74]
+ la_data_out[75] la_data_out[76] la_data_out[77] la_data_out[78] la_data_out[79]
+ la_data_out[7] la_data_out[80] la_data_out[81] la_data_out[82] la_data_out[83] la_data_out[84]
+ la_data_out[85] la_data_out[86] la_data_out[87] la_data_out[88] la_data_out[89]
+ la_data_out[8] la_data_out[90] la_data_out[91] la_data_out[92] la_data_out[93] la_data_out[94]
+ la_data_out[95] la_data_out[96] la_data_out[97] la_data_out[98] la_data_out[99]
+ la_data_out[9] la_oenb[0] la_oenb[100] la_oenb[101] la_oenb[102] la_oenb[103] la_oenb[104]
+ la_oenb[105] la_oenb[106] la_oenb[107] la_oenb[108] la_oenb[109] la_oenb[10] la_oenb[110]
+ la_oenb[111] la_oenb[112] la_oenb[113] la_oenb[114] la_oenb[115] la_oenb[116] la_oenb[117]
+ la_oenb[118] la_oenb[119] la_oenb[11] la_oenb[120] la_oenb[121] la_oenb[122] la_oenb[123]
+ la_oenb[124] la_oenb[125] la_oenb[126] la_oenb[127] la_oenb[12] la_oenb[13] la_oenb[14]
+ la_oenb[15] la_oenb[16] la_oenb[17] la_oenb[18] la_oenb[19] la_oenb[1] la_oenb[20]
+ la_oenb[21] la_oenb[22] la_oenb[23] la_oenb[24] la_oenb[25] la_oenb[26] la_oenb[27]
+ la_oenb[28] la_oenb[29] la_oenb[2] la_oenb[30] la_oenb[31] la_oenb[32] la_oenb[33]
+ la_oenb[34] la_oenb[35] la_oenb[36] la_oenb[37] la_oenb[38] la_oenb[39] la_oenb[3]
+ la_oenb[40] la_oenb[41] la_oenb[42] la_oenb[43] la_oenb[44] la_oenb[45] la_oenb[46]
+ la_oenb[47] la_oenb[48] la_oenb[49] la_oenb[4] la_oenb[50] la_oenb[51] la_oenb[52]
+ la_oenb[53] la_oenb[54] la_oenb[55] la_oenb[56] la_oenb[57] la_oenb[58] la_oenb[59]
+ la_oenb[5] la_oenb[60] la_oenb[61] la_oenb[62] la_oenb[63] la_oenb[64] la_oenb[65]
+ la_oenb[66] la_oenb[67] la_oenb[68] la_oenb[69] la_oenb[6] la_oenb[70] la_oenb[71]
+ la_oenb[72] la_oenb[73] la_oenb[74] la_oenb[75] la_oenb[76] la_oenb[77] la_oenb[78]
+ la_oenb[79] la_oenb[7] la_oenb[80] la_oenb[81] la_oenb[82] la_oenb[83] la_oenb[84]
+ la_oenb[85] la_oenb[86] la_oenb[87] la_oenb[88] la_oenb[89] la_oenb[8] la_oenb[90]
+ la_oenb[91] la_oenb[92] la_oenb[93] la_oenb[94] la_oenb[95] la_oenb[96] la_oenb[97]
+ la_oenb[98] la_oenb[99] la_oenb[9] user_clock2 user_irq[0] user_irq[1] user_irq[2]
+ vccd1 vccd2 vdda1 vdda2 vssa1 vssa2 vssd1 vssd2 wb_clk_i wb_rst_i wbs_ack_o wbs_adr_i[0]
+ wbs_adr_i[10] wbs_adr_i[11] wbs_adr_i[12] wbs_adr_i[13] wbs_adr_i[14] wbs_adr_i[15]
+ wbs_adr_i[16] wbs_adr_i[17] wbs_adr_i[18] wbs_adr_i[19] wbs_adr_i[1] wbs_adr_i[20]
+ wbs_adr_i[21] wbs_adr_i[22] wbs_adr_i[23] wbs_adr_i[24] wbs_adr_i[25] wbs_adr_i[26]
+ wbs_adr_i[27] wbs_adr_i[28] wbs_adr_i[29] wbs_adr_i[2] wbs_adr_i[30] wbs_adr_i[31]
+ wbs_adr_i[3] wbs_adr_i[4] wbs_adr_i[5] wbs_adr_i[6] wbs_adr_i[7] wbs_adr_i[8] wbs_adr_i[9]
+ wbs_cyc_i wbs_dat_i[0] wbs_dat_i[10] wbs_dat_i[11] wbs_dat_i[12] wbs_dat_i[13] wbs_dat_i[14]
+ wbs_dat_i[15] wbs_dat_i[16] wbs_dat_i[17] wbs_dat_i[18] wbs_dat_i[19] wbs_dat_i[1]
+ wbs_dat_i[20] wbs_dat_i[21] wbs_dat_i[22] wbs_dat_i[23] wbs_dat_i[24] wbs_dat_i[25]
+ wbs_dat_i[26] wbs_dat_i[27] wbs_dat_i[28] wbs_dat_i[29] wbs_dat_i[2] wbs_dat_i[30]
+ wbs_dat_i[31] wbs_dat_i[3] wbs_dat_i[4] wbs_dat_i[5] wbs_dat_i[6] wbs_dat_i[7] wbs_dat_i[8]
+ wbs_dat_i[9] wbs_dat_o[0] wbs_dat_o[10] wbs_dat_o[11] wbs_dat_o[12] wbs_dat_o[13]
+ wbs_dat_o[14] wbs_dat_o[15] wbs_dat_o[16] wbs_dat_o[17] wbs_dat_o[18] wbs_dat_o[19]
+ wbs_dat_o[1] wbs_dat_o[20] wbs_dat_o[21] wbs_dat_o[22] wbs_dat_o[23] wbs_dat_o[24]
+ wbs_dat_o[25] wbs_dat_o[26] wbs_dat_o[27] wbs_dat_o[28] wbs_dat_o[29] wbs_dat_o[2]
+ wbs_dat_o[30] wbs_dat_o[31] wbs_dat_o[3] wbs_dat_o[4] wbs_dat_o[5] wbs_dat_o[6]
+ wbs_dat_o[7] wbs_dat_o[8] wbs_dat_o[9] wbs_sel_i[0] wbs_sel_i[1] wbs_sel_i[2] wbs_sel_i[3]
+ wbs_stb_i wbs_we_i
C0 divider_0/tspc_1/Z1 divider_0/tspc_2/Q 0.01fF
C1 divider_0/nor_0/B divider_0/tspc_1/a_630_n680# 0.35fF
C2 ro_complete_1/cbank_0/switch_0/vin ro_complete_1/a4 0.12fF
C3 divbuf_2/OUT ro_complete_0/cbank_1/switch_0/vin 0.09fF
C4 ro_complete_0/cbank_0/switch_4/vin ro_complete_0/cbank_0/v 1.30fF
C5 pll_full_1/divider_0/prescaler_0/tspc_2/Z2 pll_full_1/divider_0/and_0/OUT 0.05fF
C6 pll_full_0/pd_0/DIV pll_full_0/divbuf_0/IN 5.26fF
C7 pll_full_0/divider_0/tspc_0/Z1 pll_full_0/divider_0/tspc_0/Z4 0.00fF
C8 pll_full_0/ro_complete_0/cbank_1/switch_1/vin pll_full_0/divider_0/clk 1.46fF
C9 divider_2/prescaler_0/tspc_0/a_740_n680# divider_2/clk 0.14fF
C10 divider_1/prescaler_0/tspc_1/a_630_n680# divider_1/prescaler_0/tspc_1/Z2 0.01fF
C11 divbuf_7/OUT2 divbuf_7/OUT3 1.37fF
C12 pll_full_1/pd_0/R pll_full_1/pd_0/tspc_r_1/Z3 0.29fF
C13 pll_full_0/divider_0/nor_1/B pll_full_0/divider_0/and_0/B 0.29fF
C14 pd_1/tspc_r_0/Qbar pd_1/tspc_r_0/Qbar1 0.01fF
C15 divider_2/prescaler_0/tspc_2/Z3 divider_2/prescaler_0/tspc_2/Z4 0.65fF
C16 pll_full_1/ro_complete_0/a5 pll_full_1/ro_complete_0/cbank_1/switch_0/vin 0.09fF
C17 pll_full_1/ro_complete_0/cbank_0/switch_4/vin pll_full_1/ro_complete_0/cbank_0/v 1.30fF
C18 divbuf_15/OUT4 divbuf_15/OUT5 20.26fF
C19 io_clamp_low[2] io_clamp_high[2] 0.53fF
C20 pll_full_1/divider_0/prescaler_0/tspc_0/Z2 pll_full_1/divider_0/prescaler_0/tspc_0/Z3 0.16fF
C21 divbuf_25/OUT3 divbuf_25/OUT2 1.37fF
C22 divider_0/nor_0/Z1 divider_0/and_0/B 0.18fF
C23 divider_0/tspc_2/Q divider_0/tspc_1/Z2 0.14fF
C24 divider_0/prescaler_0/tspc_2/a_630_n680# divider_0/prescaler_0/tspc_2/Z2 0.01fF
C25 divbuf_6/OUT ro_complete_0/cbank_1/v 0.05fF
C26 pll_full_1/divider_0/tspc_1/Z2 pll_full_1/divider_0/nor_0/A 0.15fF
C27 pll_full_1/divider_0/prescaler_0/tspc_1/Q pll_full_1/divider_0/prescaler_0/tspc_0/D 0.32fF
C28 pll_full_1/divider_0/prescaler_0/tspc_2/a_630_n680# pll_full_1/divider_0/clk 0.01fF
C29 divider_1/mc2 divider_1/and_0/B 0.20fF
C30 divider_0/and_0/out1 divider_0/and_0/B 0.18fF
C31 ro_complete_1/cbank_1/switch_0/vin ro_complete_1/cbank_1/v 1.43fF
C32 io_clamp_high[1] io_analog[5] 0.53fF
C33 divbuf_10/a_492_n240# divbuf_10/OUT2 0.42fF
C34 pll_full_1/pd_0/tspc_r_0/Z3 pll_full_1/pd_0/R 0.27fF
C35 pll_full_0/divider_0/tspc_1/Z1 pll_full_0/divider_0/tspc_1/Z2 1.07fF
C36 pll_full_0/divider_0/nor_0/B pll_full_0/divider_0/tspc_1/Z3 0.38fF
C37 pll_full_0/divider_0/tspc_1/Q pll_full_0/divider_0/nor_1/B 0.22fF
C38 divider_2/prescaler_0/Out divider_2/prescaler_0/tspc_1/Z4 0.28fF
C39 divbuf_11/OUT5 divbuf_11/OUT 43.38fF
C40 pd_1/R pd_1/tspc_r_1/Qbar 0.03fF
C41 divbuf_9/a_492_n240# divbuf_9/OUT 0.00fF
C42 divbuf_5/OUT ro_complete_0/cbank_1/switch_3/vin 0.09fF
C43 pll_full_0/pd_0/tspc_r_0/z5 pll_full_0/pd_0/tspc_r_1/z5 0.02fF
C44 pll_full_0/pd_0/tspc_r_1/Z3 pll_full_0/pd_0/tspc_r_1/Z2 0.25fF
C45 pll_full_1/divider_0/prescaler_0/tspc_1/a_630_n680# pll_full_1/divider_0/prescaler_0/tspc_1/Z4 0.12fF
C46 pll_full_1/divider_0/prescaler_0/tspc_1/Z1 pll_full_1/divider_0/prescaler_0/tspc_1/Z2 1.07fF
C47 pll_full_1/ro_complete_0/cbank_1/switch_4/vin pll_full_1/divider_0/clk 1.46fF
C48 divbuf_14/OUT divbuf_14/a_492_n240# 0.00fF
C49 divider_0/nor_0/B divider_0/and_0/B 0.31fF
C50 divider_0/tspc_2/Q divider_0/nor_0/A 0.55fF
C51 divider_0/and_0/OUT divider_0/prescaler_0/nand_0/z1 0.01fF
C52 ro_complete_1/cbank_0/switch_3/vin ro_complete_1/cbank_0/switch_2/vin 0.20fF
C53 pll_full_1/divider_0/tspc_2/a_630_n680# pll_full_1/divider_0/tspc_2/Z2 0.01fF
C54 pll_full_1/pd_0/UP pll_full_1/pd_0/and_pd_0/Out1 0.33fF
C55 pll_full_0/divbuf_0/OUT3 pll_full_0/divbuf_0/OUT2 1.37fF
C56 divider_2/tspc_0/Z4 divider_2/tspc_0/Z1 0.00fF
C57 ro_complete_1/cbank_2/switch_4/vin ro_complete_1/cbank_2/switch_5/vin 0.20fF
C58 divbuf_20/IN divbuf_20/OUT5 0.00fF
C59 pll_full_0/divider_0/prescaler_0/tspc_2/Z2 pll_full_0/divider_0/and_0/OUT 0.05fF
C60 divider_2/prescaler_0/Out divider_2/prescaler_0/tspc_1/Q 0.91fF
C61 divider_1/tspc_2/Q divider_1/tspc_2/a_630_n680# 0.04fF
C62 divider_1/and_0/OUT divider_1/prescaler_0/tspc_2/D 0.03fF
C63 divbuf_8/a_492_n240# divbuf_8/IN 0.13fF
C64 pd_0/tspc_r_0/Qbar1 pd_0/tspc_r_0/z5 0.20fF
C65 pll_full_1/ro_complete_0/a2 pll_full_1/ro_complete_0/cbank_1/switch_3/vin 0.09fF
C66 pll_full_1/ro_complete_0/cbank_0/switch_0/vin pll_full_1/ro_complete_0/cbank_0/v 1.30fF
C67 divider_2/tspc_0/Z3 divider_2/nor_1/B 0.38fF
C68 divider_2/prescaler_0/m1_2700_2190# divider_2/prescaler_0/tspc_1/Z3 0.33fF
C69 pd_1/UP pd_1/and_pd_0/Out1 0.33fF
C70 divbuf_18/OUT divbuf_18/a_492_n240# 0.00fF
C71 divider_2/and_0/OUT divider_2/and_0/Z1 0.04fF
C72 divider_2/prescaler_0/tspc_2/Q divider_2/clk 0.05fF
C73 divbuf_13/OUT4 divbuf_13/OUT 1.11fF
C74 divbuf_4/OUT divbuf_3/OUT 2.71fF
C75 divbuf_0/OUT5 divbuf_0/a_492_n240# 0.01fF
C76 pll_full_1/pd_0/UP pll_full_1/pd_0/and_pd_0/Z1 0.06fF
C77 divider_0/nor_0/B divider_0/tspc_1/Q 0.51fF
C78 pll_full_1/divider_0/tspc_1/a_630_n680# pll_full_1/divider_0/tspc_1/Z2 0.01fF
C79 pll_full_1/divider_0/tspc_2/Q pll_full_1/divider_0/tspc_1/Z3 0.45fF
C80 pll_full_1/divider_0/prescaler_0/tspc_2/a_630_n680# pll_full_1/divider_0/prescaler_0/tspc_2/Z3 0.05fF
C81 pll_full_1/divider_0/prescaler_0/tspc_2/a_740_n680# pll_full_1/divider_0/prescaler_0/tspc_2/Z4 0.08fF
C82 pll_full_1/divider_0/prescaler_0/tspc_1/a_630_n680# pll_full_1/divider_0/prescaler_0/tspc_1/Q 0.04fF
C83 divider_2/prescaler_0/tspc_0/Z3 divider_2/prescaler_0/tspc_0/Z4 0.65fF
C84 divider_0/and_0/OUT divider_0/clk 0.04fF
C85 divbuf_1/OUT5 divbuf_1/OUT3 0.01fF
C86 pll_full_0/ro_complete_0/a5 pll_full_0/ro_complete_0/cbank_1/switch_0/vin 0.09fF
C87 pll_full_0/ro_complete_0/cbank_0/switch_4/vin pll_full_0/ro_complete_0/cbank_0/v 1.30fF
C88 divider_2/prescaler_0/Out divider_2/prescaler_0/tspc_0/a_630_n680# 0.04fF
C89 divider_1/nor_0/B divider_1/tspc_1/Z1 0.03fF
C90 pll_full_1/pd_0/tspc_r_0/z5 pll_full_1/pd_0/tspc_r_1/z5 0.02fF
C91 pll_full_0/divider_0/prescaler_0/tspc_0/Z2 pll_full_0/divider_0/prescaler_0/tspc_0/Z3 0.16fF
C92 pll_full_0/divider_0/tspc_1/Z2 pll_full_0/divider_0/nor_0/A 0.15fF
C93 pll_full_0/divider_0/prescaler_0/tspc_1/Q pll_full_0/divider_0/prescaler_0/tspc_0/D 0.32fF
C94 pll_full_0/divider_0/prescaler_0/tspc_2/a_630_n680# pll_full_0/divider_0/clk 0.01fF
C95 divider_1/prescaler_0/tspc_1/Q divider_1/nor_0/A 0.03fF
C96 divbuf_12/OUT2 divbuf_12/OUT3 1.37fF
C97 pd_1/tspc_r_0/Qbar pd_1/DOWN 0.21fF
C98 pd_0/tspc_r_0/z5 pd_0/tspc_r_1/z5 0.02fF
C99 pd_0/tspc_r_1/Z3 pd_0/tspc_r_1/Z2 0.25fF
C100 divider_2/prescaler_0/m1_2700_2190# divider_2/prescaler_0/nand_0/z1 0.07fF
C101 pll_full_0/pd_0/DOWN pll_full_0/pd_0/UP 4.58fF
C102 divbuf_6/OUT divbuf_7/OUT 2.98fF
C103 divbuf_3/OUT ro_complete_0/cbank_2/switch_2/vin 0.09fF
C104 divider_0/tspc_2/Q divider_0/tspc_1/a_630_n680# 0.01fF
C105 divider_0/tspc_1/Z1 divider_0/tspc_1/Z3 0.06fF
C106 ro_complete_1/cbank_2/switch_1/vin ro_complete_1/cbank_2/switch_2/vin 0.20fF
C107 divider_0/nor_0/A divider_0/and_0/A 0.01fF
C108 divider_1/nor_0/B divider_1/tspc_1/Z2 0.30fF
C109 divbuf_6/OUT2 divbuf_6/OUT5 0.02fF
C110 divbuf_6/OUT3 divbuf_6/OUT4 5.16fF
C111 pll_full_1/pd_0/tspc_r_1/Qbar1 pll_full_1/pd_0/R 0.30fF
C112 pll_full_1/pd_0/tspc_r_0/Z3 pll_full_1/pd_0/tspc_r_0/Z2 0.25fF
C113 pll_full_0/divider_0/prescaler_0/tspc_1/a_630_n680# pll_full_0/divider_0/prescaler_0/tspc_1/Z4 0.12fF
C114 pll_full_0/divider_0/prescaler_0/tspc_1/Z1 pll_full_0/divider_0/prescaler_0/tspc_1/Z2 1.07fF
C115 pll_full_0/ro_complete_0/cbank_1/switch_4/vin pll_full_0/divider_0/clk 1.46fF
C116 divbuf_11/a_492_n240# divbuf_11/OUT2 0.42fF
C117 pll_full_0/divider_0/tspc_2/a_630_n680# pll_full_0/divider_0/tspc_2/Z2 0.01fF
C118 divbuf_17/a_492_n240# divbuf_17/OUT5 0.01fF
C119 divbuf_16/OUT divbuf_16/OUT4 1.11fF
C120 divbuf_23/OUT5 divbuf_23/OUT 43.38fF
C121 pd_1/R pd_1/tspc_r_0/Qbar1 0.01fF
C122 pll_full_1/ro_complete_0/a3 pll_full_1/ro_complete_0/cbank_2/switch_2/vin 0.09fF
C123 divider_2/prescaler_0/tspc_2/Z3 divider_2/prescaler_0/tspc_2/Q 0.05fF
C124 divider_2/prescaler_0/m1_2700_2190# divider_2/clk 0.01fF
C125 pll_full_0/pd_0/R pll_full_0/pd_0/UP 0.46fF
C126 pll_full_1/divider_0/prescaler_0/Out pll_full_1/divider_0/prescaler_0/tspc_1/Z1 0.08fF
C127 pll_full_1/divider_0/nor_1/Z1 pll_full_1/divider_0/nor_1/B 0.06fF
C128 divbuf_3/OUT divbuf_3/OUT2 0.06fF
C129 divbuf_2/OUT2 divbuf_2/a_492_n240# 0.42fF
C130 ro_complete_1/cbank_1/switch_3/vin ro_complete_1/cbank_1/switch_2/vin 0.20fF
C131 ro_complete_0/cbank_2/switch_1/vin ro_complete_0/cbank_2/v 1.30fF
C132 pll_full_0/ro_complete_0/a2 pll_full_0/ro_complete_0/cbank_1/switch_3/vin 0.09fF
C133 divider_0/prescaler_0/m1_2700_2190# divider_0/nor_0/A 0.01fF
C134 divider_0/prescaler_0/Out divider_0/tspc_2/Z4 0.12fF
C135 divider_0/tspc_1/Z2 divider_0/tspc_1/Z3 0.16fF
C136 divider_0/prescaler_0/tspc_2/Z1 divider_0/prescaler_0/tspc_2/D 0.15fF
C137 ro_complete_1/cbank_1/switch_5/vin ro_complete_1/cbank_1/v 1.30fF
C138 divider_2/prescaler_0/tspc_0/a_740_n680# divider_2/prescaler_0/tspc_1/Z4 0.01fF
C139 divbuf_19/OUT2 divbuf_19/OUT5 0.02fF
C140 divider_1/prescaler_0/Out divider_1/tspc_2/Z3 0.45fF
C141 divider_1/nor_0/B divider_1/nor_0/A 1.21fF
C142 pll_full_1/pd_0/DOWN pll_full_1/pd_0/R 0.36fF
C143 pll_full_0/divider_0/tspc_1/a_630_n680# pll_full_0/divider_0/tspc_1/Z2 0.01fF
C144 pll_full_0/divider_0/tspc_2/Q pll_full_0/divider_0/tspc_1/Z3 0.45fF
C145 pll_full_0/divider_0/prescaler_0/tspc_2/a_630_n680# pll_full_0/divider_0/prescaler_0/tspc_2/Z3 0.05fF
C146 pll_full_0/divider_0/prescaler_0/tspc_2/a_740_n680# pll_full_0/divider_0/prescaler_0/tspc_2/Z4 0.08fF
C147 pll_full_0/divider_0/prescaler_0/tspc_1/a_630_n680# pll_full_0/divider_0/prescaler_0/tspc_1/Q 0.04fF
C148 pd_0/DIV pd_0/tspc_r_0/Qbar1 0.12fF
C149 divbuf_22/IN divbuf_22/OUT5 0.00fF
C150 pll_full_1/pd_0/tspc_r_1/Z3 pll_full_1/pd_0/tspc_r_1/z5 0.11fF
C151 divider_2/nor_0/Z1 divider_2/nor_0/B 0.06fF
C152 divbuf_13/a_492_n240# divbuf_13/IN 0.13fF
C153 pd_1/R pd_1/and_pd_0/Z1 0.02fF
C154 pd_1/tspc_r_1/Qbar1 pd_1/tspc_r_1/Qbar 0.01fF
C155 pll_full_1/ro_complete_0/cbank_2/switch_1/vin pll_full_1/ro_complete_0/cbank_2/v 1.30fF
C156 divbuf_1/OUT2 divbuf_1/OUT5 0.02fF
C157 ro_complete_0/cbank_0/switch_3/vin ro_complete_0/cbank_0/switch_4/vin 0.20fF
C158 pll_full_0/pd_0/UP pll_full_0/pd_0/and_pd_0/Out1 0.33fF
C159 divider_0/tspc_0/Z1 divider_0/tspc_0/Z3 0.06fF
C160 divider_0/prescaler_0/tspc_0/Z1 divider_0/prescaler_0/tspc_0/Z4 0.00fF
C161 pll_full_1/divider_0/nor_0/B pll_full_1/divider_0/tspc_1/Z4 0.21fF
C162 pll_full_1/divider_0/tspc_0/Z3 pll_full_1/divider_0/nor_1/B 0.38fF
C163 divbuf_5/OUT divbuf_5/OUT2 0.06fF
C164 pll_full_0/divbuf_0/OUT5 pll_full_0/divbuf_0/a_492_n240# 0.01fF
C165 divbuf_25/a_492_n240# divbuf_25/OUT5 0.01fF
C166 pll_full_1/divider_0/nor_0/A pll_full_1/divider_0/and_0/B 0.08fF
C167 divider_2/prescaler_0/tspc_0/a_740_n680# divider_2/prescaler_0/tspc_1/Q 0.15fF
C168 divider_1/tspc_0/Z1 divider_1/tspc_1/Q 0.01fF
C169 divider_1/prescaler_0/tspc_0/Z1 divider_1/prescaler_0/tspc_0/Z3 0.06fF
C170 pll_full_1/pd_0/tspc_r_0/z5 pll_full_1/pd_0/tspc_r_0/Z4 0.04fF
C171 pd_0/R pd_0/UP 0.45fF
C172 pll_full_1/divbuf_0/OUT5 pll_full_1/divbuf_0/OUT3 0.01fF
C173 pll_full_1/ro_complete_0/cbank_0/switch_3/vin pll_full_1/ro_complete_0/cbank_0/switch_4/vin 0.20fF
C174 pll_full_0/pd_0/DIV pll_full_0/pd_0/tspc_r_0/Z3 0.65fF
C175 divbuf_17/a_492_n240# divbuf_17/OUT 0.00fF
C176 divider_2/tspc_2/Q divider_2/tspc_2/a_630_n680# 0.04fF
C177 divider_2/tspc_0/Z3 divider_2/tspc_0/Z1 0.06fF
C178 divbuf_24/OUT2 divbuf_24/OUT3 1.37fF
C179 pll_full_1/divider_0/tspc_0/Z1 pll_full_1/divider_0/tspc_0/Z2 1.07fF
C180 divider_2/prescaler_0/tspc_0/a_740_n680# divider_2/prescaler_0/Out 0.21fF
C181 divider_0/prescaler_0/tspc_1/Z1 divider_0/prescaler_0/tspc_1/Z3 0.06fF
C182 pll_full_1/divider_0/prescaler_0/tspc_2/a_740_n680# pll_full_1/divider_0/prescaler_0/tspc_2/Q 0.20fF
C183 pll_full_1/divider_0/prescaler_0/tspc_2/Z2 pll_full_1/divider_0/prescaler_0/tspc_2/D 0.09fF
C184 pll_full_1/divider_0/prescaler_0/tspc_0/Z2 pll_full_1/divider_0/clk 0.11fF
C185 pll_full_1/pd_0/tspc_r_1/Z2 pll_full_1/pd_0/R 0.21fF
C186 pll_full_0/ro_complete_0/a3 pll_full_0/ro_complete_0/cbank_2/switch_2/vin 0.09fF
C187 divider_2/prescaler_0/tspc_0/a_740_n680# divider_2/prescaler_0/tspc_0/a_630_n680# 0.19fF
C188 divbuf_25/IN divbuf_25/OUT5 0.00fF
C189 divider_0/tspc_2/a_630_n680# divider_0/tspc_2/Z3 0.05fF
C190 divider_0/nor_0/A divider_0/tspc_2/Z1 0.03fF
C191 divider_1/tspc_1/Z1 divider_1/tspc_2/Q 0.01fF
C192 divider_1/nor_0/B divider_1/tspc_1/a_630_n680# 0.35fF
C193 pll_full_0/divider_0/prescaler_0/Out pll_full_0/divider_0/prescaler_0/tspc_1/Z1 0.08fF
C194 pll_full_0/divider_0/nor_1/Z1 pll_full_0/divider_0/nor_1/B 0.06fF
C195 divbuf_7/OUT2 divbuf_7/OUT5 0.02fF
C196 divbuf_7/OUT3 divbuf_7/OUT4 5.16fF
C197 pll_full_1/divbuf_1/OUT2 pll_full_1/divbuf_1/OUT3 1.37fF
C198 pll_full_1/pd_0/DIV pll_full_1/divbuf_0/OUT4 1.11fF
C199 pd_1/DOWN pd_1/R 0.36fF
C200 pd_0/UP pd_0/and_pd_0/Out1 0.33fF
C201 divbuf_23/a_492_n240# divbuf_23/OUT2 0.42fF
C202 divider_2/mc2 divider_2/and_0/out1 0.06fF
C203 divider_2/nor_0/Z1 divider_2/and_0/A 0.80fF
C204 divbuf_15/OUT5 divbuf_15/OUT 43.38fF
C205 pll_full_1/divider_0/tspc_0/a_630_n680# pll_full_1/divider_0/tspc_1/Q 0.01fF
C206 pll_full_1/divider_0/prescaler_0/tspc_0/Z2 pll_full_1/divider_0/prescaler_0/tspc_0/Z4 0.36fF
C207 pll_full_1/divider_0/prescaler_0/tspc_0/Z3 pll_full_1/divider_0/prescaler_0/Out 0.05fF
C208 pll_full_1/ro_complete_0/a2 pll_full_1/divider_0/clk 0.11fF
C209 divider_0/mc2 divider_0/and_0/out1 0.06fF
C210 divider_0/tspc_1/a_630_n680# divider_0/tspc_1/Z3 0.05fF
C211 pll_full_1/divider_0/prescaler_0/tspc_1/Q pll_full_1/divider_0/prescaler_0/nand_1/z1 0.22fF
C212 pll_full_1/divider_0/prescaler_0/tspc_2/Q pll_full_1/divider_0/prescaler_0/tspc_0/D 0.04fF
C213 divbuf_3/a_492_n240# divbuf_3/OUT5 0.01fF
C214 ro_complete_1/a0 ro_complete_1/cbank_1/switch_5/vin 0.09fF
C215 pll_full_0/ro_complete_0/cbank_2/switch_1/vin pll_full_0/ro_complete_0/cbank_2/v 1.30fF
C216 divider_2/tspc_0/Z4 divider_2/tspc_0/Z3 0.65fF
C217 divider_0/and_0/A divider_0/and_0/B 0.18fF
C218 io_clamp_low[0] io_analog[4] 0.53fF
C219 divider_1/tspc_2/Q divider_1/tspc_1/Z2 0.14fF
C220 divider_1/prescaler_0/tspc_2/a_630_n680# divider_1/prescaler_0/tspc_2/Z2 0.01fF
C221 pll_full_0/divider_0/nor_0/B pll_full_0/divider_0/tspc_1/Z4 0.21fF
C222 pll_full_0/divider_0/tspc_0/Z3 pll_full_0/divider_0/nor_1/B 0.38fF
C223 divider_2/nor_1/Z1 divider_2/and_0/B 0.78fF
C224 divider_1/and_0/out1 divider_1/and_0/B 0.18fF
C225 pll_full_0/divider_0/nor_0/A pll_full_0/divider_0/and_0/B 0.08fF
C226 divbuf_9/IN divbuf_9/OUT5 0.00fF
C227 pll_full_1/divbuf_0/OUT3 pll_full_1/divbuf_0/OUT2 1.37fF
C228 pll_full_0/pd_0/DIV pll_full_0/pd_0/R 0.51fF
C229 divbuf_17/OUT5 divbuf_17/OUT 43.38fF
C230 divider_2/prescaler_0/tspc_1/Q divider_2/prescaler_0/tspc_2/Q 0.19fF
C231 divider_2/prescaler_0/tspc_2/a_740_n680# divider_2/clk 0.01fF
C232 divider_2/nor_1/B divider_2/and_0/B 0.29fF
C233 divider_0/mc2 divider_0/nor_0/B 0.06fF
C234 divbuf_0/OUT divbuf_0/OUT2 0.06fF
C235 ro_complete_0/cbank_0/switch_0/vin divbuf_4/OUT 0.12fF
C236 divbuf_5/OUT ro_complete_0/cbank_0/switch_3/vin 0.09fF
C237 pll_full_1/divider_0/tspc_1/Q pll_full_1/divider_0/tspc_1/a_630_n680# 0.04fF
C238 pll_full_1/divider_0/prescaler_0/tspc_1/Z2 pll_full_1/divider_0/prescaler_0/tspc_1/Z3 0.16fF
C239 pll_full_1/ro_complete_0/cbank_1/switch_0/vin pll_full_1/divider_0/clk 1.58fF
C240 pll_full_0/pd_0/tspc_r_1/Qbar1 pll_full_0/pd_0/tspc_r_1/Qbar 0.01fF
C241 ro_complete_1/a2 ro_complete_1/cbank_2/switch_2/vin 0.14fF
C242 pll_full_0/ro_complete_0/cbank_0/switch_3/vin pll_full_0/ro_complete_0/cbank_0/switch_4/vin 0.20fF
C243 divider_0/prescaler_0/tspc_2/D divider_0/prescaler_0/nand_0/z1 0.24fF
C244 pll_full_1/divider_0/nor_0/A pll_full_1/divider_0/tspc_2/Z2 0.23fF
C245 divbuf_4/a_492_n240# divbuf_4/OUT5 0.01fF
C246 ro_complete_1/cbank_2/switch_4/vin ro_complete_1/cbank_2/v 1.30fF
C247 pll_full_0/divider_0/tspc_0/Z1 pll_full_0/divider_0/tspc_0/Z2 1.07fF
C248 divbuf_20/OUT2 divbuf_20/OUT 0.06fF
C249 divbuf_20/OUT3 divbuf_20/OUT5 0.01fF
C250 divider_1/nor_0/B divider_1/and_0/B 0.31fF
C251 divider_1/tspc_2/Q divider_1/nor_0/A 0.55fF
C252 divider_1/and_0/OUT divider_1/prescaler_0/nand_0/z1 0.01fF
C253 pll_full_1/pd_0/tspc_r_1/Qbar1 pll_full_1/pd_0/tspc_r_1/z5 0.20fF
C254 pll_full_1/pd_0/tspc_r_0/Z3 pll_full_1/pd_0/tspc_r_0/Z4 0.20fF
C255 pll_full_0/divider_0/prescaler_0/tspc_2/a_740_n680# pll_full_0/divider_0/prescaler_0/tspc_2/Q 0.20fF
C256 pll_full_0/divider_0/prescaler_0/tspc_2/Z2 pll_full_0/divider_0/prescaler_0/tspc_2/D 0.09fF
C257 pll_full_0/divider_0/prescaler_0/tspc_0/Z2 pll_full_0/divider_0/clk 0.11fF
C258 divider_2/tspc_0/Z2 divider_2/nor_0/B 0.20fF
C259 divider_2/tspc_0/a_630_n680# divider_2/nor_1/B 0.35fF
C260 divider_2/prescaler_0/tspc_1/a_630_n680# divider_2/prescaler_0/tspc_1/Z3 0.05fF
C261 divider_2/prescaler_0/m1_2700_2190# divider_2/prescaler_0/tspc_1/Z4 0.08fF
C262 pll_full_1/ro_complete_0/a2 pll_full_1/ro_complete_0/cbank_0/switch_3/vin 0.09fF
C263 divider_2/tspc_2/a_630_n680# divider_2/nor_0/A 0.35fF
C264 divider_2/prescaler_0/tspc_0/D divider_2/clk 0.29fF
C265 divider_0/tspc_0/Z1 divider_0/tspc_0/Z4 0.00fF
C266 divider_0/prescaler_0/Out divider_0/prescaler_0/tspc_1/Z2 0.19fF
C267 ro_complete_0/cbank_1/switch_1/vin ro_complete_0/cbank_1/switch_2/vin 0.20fF
C268 pll_full_1/divider_0/tspc_2/Q pll_full_1/divider_0/tspc_1/Z4 0.15fF
C269 pll_full_1/divider_0/tspc_0/Z4 pll_full_1/divider_0/nor_1/B 0.22fF
C270 pll_full_1/divider_0/prescaler_0/tspc_2/a_630_n680# pll_full_1/divider_0/prescaler_0/tspc_2/Z4 0.12fF
C271 pll_full_1/divider_0/prescaler_0/tspc_2/Z1 pll_full_1/divider_0/prescaler_0/tspc_2/Z2 1.07fF
C272 pll_full_0/pd_0/REF pll_full_0/divbuf_1/a_492_n240# 0.13fF
C273 divbuf_17/IN divbuf_17/a_492_n240# 0.13fF
C274 divider_1/mc2 divider_1/and_0/OUT 0.05fF
C275 divbuf_14/OUT divbuf_14/OUT4 1.11fF
C276 divider_0/and_0/OUT divider_0/and_0/out1 0.31fF
C277 divider_0/prescaler_0/tspc_2/D divider_0/clk 0.26fF
C278 ro_complete_1/cbank_1/switch_1/vin ro_complete_1/cbank_1/switch_0/vin 0.19fF
C279 pll_full_1/divider_0/and_0/out1 pll_full_1/divider_0/and_0/Z1 0.36fF
C280 pll_full_0/divider_0/tspc_0/a_630_n680# pll_full_0/divider_0/tspc_1/Q 0.01fF
C281 pll_full_0/divider_0/prescaler_0/tspc_0/Z2 pll_full_0/divider_0/prescaler_0/tspc_0/Z4 0.36fF
C282 pll_full_0/divider_0/prescaler_0/tspc_0/Z3 pll_full_0/divider_0/prescaler_0/Out 0.05fF
C283 pll_full_0/ro_complete_0/a2 pll_full_0/divider_0/clk 0.11fF
C284 divider_2/prescaler_0/tspc_0/Z3 divider_2/prescaler_0/tspc_0/Z1 0.06fF
C285 divider_1/nor_0/B divider_1/tspc_1/Q 0.51fF
C286 divider_1/and_0/OUT divider_1/clk 0.04fF
C287 pll_full_0/divider_0/prescaler_0/tspc_1/Q pll_full_0/divider_0/prescaler_0/nand_1/z1 0.22fF
C288 pll_full_0/divider_0/prescaler_0/tspc_2/Q pll_full_0/divider_0/prescaler_0/tspc_0/D 0.04fF
C289 pd_0/tspc_r_1/Qbar1 pd_0/tspc_r_1/Qbar 0.01fF
C290 pll_full_0/pd_0/tspc_r_0/Z3 pll_full_0/pd_0/tspc_r_0/Qbar1 0.38fF
C291 divider_2/prescaler_0/tspc_1/Z2 divider_2/and_0/OUT 0.06fF
C292 divider_2/prescaler_0/tspc_2/a_740_n680# divider_2/prescaler_0/tspc_2/Z3 0.33fF
C293 divider_2/prescaler_0/m1_2700_2190# divider_2/prescaler_0/tspc_1/Q 0.38fF
C294 divider_2/prescaler_0/tspc_0/Z2 divider_2/clk 0.11fF
C295 divbuf_12/OUT2 divbuf_12/OUT5 0.02fF
C296 divbuf_12/OUT3 divbuf_12/OUT4 5.16fF
C297 pll_full_1/ro_complete_0/cbank_1/switch_1/vin pll_full_1/ro_complete_0/cbank_1/switch_2/vin 0.20fF
C298 pll_full_1/divider_0/prescaler_0/tspc_0/a_740_n680# pll_full_1/divider_0/prescaler_0/tspc_0/Z3 0.33fF
C299 pll_full_0/pd_0/DIV pll_full_0/divbuf_0/OUT3 0.26fF
C300 divider_2/and_0/out1 divider_2/and_0/A 0.01fF
C301 divbuf_14/OUT2 divbuf_14/OUT 0.06fF
C302 divider_0/tspc_1/Q divider_0/tspc_1/Z3 0.05fF
C303 divider_0/tspc_1/Z1 divider_0/tspc_1/Z4 0.00fF
C304 divider_0/Out divider_0/nor_1/B 0.22fF
C305 divbuf_2/OUT ro_complete_0/cbank_1/v 0.10fF
C306 ro_complete_0/cbank_0/switch_5/vin divbuf_7/OUT 0.09fF
C307 pll_full_1/divider_0/tspc_2/Q pll_full_1/divider_0/tspc_2/Z3 0.05fF
C308 pll_full_1/divider_0/prescaler_0/tspc_1/Z2 pll_full_1/divider_0/clk 0.11fF
C309 pll_full_0/divbuf_1/OUT5 pll_full_0/divbuf_1/OUT 43.38fF
C310 divbuf_16/a_492_n240# divbuf_16/OUT 0.00fF
C311 divbuf_6/OUT4 divbuf_6/OUT5 20.26fF
C312 pll_full_1/divbuf_1/a_492_n240# pll_full_1/divbuf_1/OUT5 0.01fF
C313 pll_full_0/divider_0/tspc_1/Q pll_full_0/divider_0/tspc_1/a_630_n680# 0.04fF
C314 pll_full_0/divider_0/prescaler_0/tspc_1/Z2 pll_full_0/divider_0/prescaler_0/tspc_1/Z3 0.16fF
C315 pll_full_0/ro_complete_0/cbank_1/switch_0/vin pll_full_0/divider_0/clk 1.58fF
C316 divider_2/prescaler_0/Out divider_2/prescaler_0/m1_2700_2190# 0.11fF