* SPICE3 file created from user_analog_project_wrapper.ext - technology: sky130A

.subckt user_analog_project_wrapper gpio_analog[0] gpio_analog[10] gpio_analog[11]
+ gpio_analog[12] gpio_analog[13] gpio_analog[14] gpio_analog[15] gpio_analog[16]
+ gpio_analog[17] gpio_analog[1] gpio_analog[2] gpio_analog[3] gpio_analog[4] gpio_analog[5]
+ gpio_analog[6] gpio_analog[7] gpio_analog[8] gpio_analog[9] gpio_noesd[0] gpio_noesd[10]
+ gpio_noesd[11] gpio_noesd[12] gpio_noesd[13] gpio_noesd[14] gpio_noesd[15] gpio_noesd[16]
+ gpio_noesd[17] gpio_noesd[1] gpio_noesd[2] gpio_noesd[3] gpio_noesd[4] gpio_noesd[5]
+ gpio_noesd[6] gpio_noesd[7] gpio_noesd[8] gpio_noesd[9] io_analog[0] io_analog[10]
+ io_analog[1] io_analog[2] io_analog[3] io_analog[4] io_analog[5] io_analog[6] io_analog[7]
+ io_analog[8] io_analog[9] io_clamp_high[0] io_clamp_high[1] io_clamp_high[2] io_clamp_low[0]
+ io_clamp_low[1] io_clamp_low[2] io_in[0] io_in[10] io_in[11] io_in[12] io_in[13]
+ io_in[14] io_in[15] io_in[16] io_in[17] io_in[18] io_in[19] io_in[1] io_in[20] io_in[21]
+ io_in[22] io_in[23] io_in[24] io_in[25] io_in[26] io_in[2] io_in[3] io_in[4] io_in[5]
+ io_in[6] io_in[7] io_in[8] io_in[9] io_in_3v3[0] io_in_3v3[10] io_in_3v3[11] io_in_3v3[12]
+ io_in_3v3[13] io_in_3v3[14] io_in_3v3[15] io_in_3v3[16] io_in_3v3[17] io_in_3v3[18]
+ io_in_3v3[19] io_in_3v3[1] io_in_3v3[20] io_in_3v3[21] io_in_3v3[22] io_in_3v3[23]
+ io_in_3v3[24] io_in_3v3[25] io_in_3v3[26] io_in_3v3[2] io_in_3v3[3] io_in_3v3[4]
+ io_in_3v3[5] io_in_3v3[6] io_in_3v3[7] io_in_3v3[8] io_in_3v3[9] io_oeb[0] io_oeb[10]
+ io_oeb[11] io_oeb[12] io_oeb[13] io_oeb[14] io_oeb[15] io_oeb[16] io_oeb[17] io_oeb[18]
+ io_oeb[19] io_oeb[1] io_oeb[20] io_oeb[21] io_oeb[22] io_oeb[23] io_oeb[24] io_oeb[25]
+ io_oeb[26] io_oeb[2] io_oeb[3] io_oeb[4] io_oeb[5] io_oeb[6] io_oeb[7] io_oeb[8]
+ io_oeb[9] io_out[0] io_out[10] io_out[11] io_out[12] io_out[13] io_out[14] io_out[15]
+ io_out[16] io_out[17] io_out[18] io_out[19] io_out[1] io_out[20] io_out[21] io_out[22]
+ io_out[23] io_out[24] io_out[25] io_out[26] io_out[2] io_out[3] io_out[4] io_out[5]
+ io_out[6] io_out[7] io_out[8] io_out[9] la_data_in[0] la_data_in[100] la_data_in[101]
+ la_data_in[102] la_data_in[103] la_data_in[104] la_data_in[105] la_data_in[106]
+ la_data_in[107] la_data_in[108] la_data_in[109] la_data_in[10] la_data_in[110] la_data_in[111]
+ la_data_in[112] la_data_in[113] la_data_in[114] la_data_in[115] la_data_in[116]
+ la_data_in[117] la_data_in[118] la_data_in[119] la_data_in[11] la_data_in[120] la_data_in[121]
+ la_data_in[122] la_data_in[123] la_data_in[124] la_data_in[125] la_data_in[126]
+ la_data_in[127] la_data_in[12] la_data_in[13] la_data_in[14] la_data_in[15] la_data_in[16]
+ la_data_in[17] la_data_in[18] la_data_in[19] la_data_in[1] la_data_in[20] la_data_in[21]
+ la_data_in[22] la_data_in[23] la_data_in[24] la_data_in[25] la_data_in[26] la_data_in[27]
+ la_data_in[28] la_data_in[29] la_data_in[2] la_data_in[30] la_data_in[31] la_data_in[32]
+ la_data_in[33] la_data_in[34] la_data_in[35] la_data_in[36] la_data_in[37] la_data_in[38]
+ la_data_in[39] la_data_in[3] la_data_in[40] la_data_in[41] la_data_in[42] la_data_in[43]
+ la_data_in[44] la_data_in[45] la_data_in[46] la_data_in[47] la_data_in[48] la_data_in[49]
+ la_data_in[4] la_data_in[50] la_data_in[51] la_data_in[52] la_data_in[53] la_data_in[54]
+ la_data_in[55] la_data_in[56] la_data_in[57] la_data_in[58] la_data_in[59] la_data_in[5]
+ la_data_in[60] la_data_in[61] la_data_in[62] la_data_in[63] la_data_in[64] la_data_in[65]
+ la_data_in[66] la_data_in[67] la_data_in[68] la_data_in[69] la_data_in[6] la_data_in[70]
+ la_data_in[71] la_data_in[72] la_data_in[73] la_data_in[74] la_data_in[75] la_data_in[76]
+ la_data_in[77] la_data_in[78] la_data_in[79] la_data_in[7] la_data_in[80] la_data_in[81]
+ la_data_in[82] la_data_in[83] la_data_in[84] la_data_in[85] la_data_in[86] la_data_in[87]
+ la_data_in[88] la_data_in[89] la_data_in[8] la_data_in[90] la_data_in[91] la_data_in[92]
+ la_data_in[93] la_data_in[94] la_data_in[95] la_data_in[96] la_data_in[97] la_data_in[98]
+ la_data_in[99] la_data_in[9] la_data_out[0] la_data_out[100] la_data_out[101] la_data_out[102]
+ la_data_out[103] la_data_out[104] la_data_out[105] la_data_out[106] la_data_out[107]
+ la_data_out[108] la_data_out[109] la_data_out[10] la_data_out[110] la_data_out[111]
+ la_data_out[112] la_data_out[113] la_data_out[114] la_data_out[115] la_data_out[116]
+ la_data_out[117] la_data_out[118] la_data_out[119] la_data_out[11] la_data_out[120]
+ la_data_out[121] la_data_out[122] la_data_out[123] la_data_out[124] la_data_out[125]
+ la_data_out[126] la_data_out[127] la_data_out[12] la_data_out[13] la_data_out[14]
+ la_data_out[15] la_data_out[16] la_data_out[17] la_data_out[18] la_data_out[19]
+ la_data_out[1] la_data_out[20] la_data_out[21] la_data_out[22] la_data_out[23] la_data_out[24]
+ la_data_out[25] la_data_out[26] la_data_out[27] la_data_out[28] la_data_out[29]
+ la_data_out[2] la_data_out[30] la_data_out[31] la_data_out[32] la_data_out[33] la_data_out[34]
+ la_data_out[35] la_data_out[36] la_data_out[37] la_data_out[38] la_data_out[39]
+ la_data_out[3] la_data_out[40] la_data_out[41] la_data_out[42] la_data_out[43] la_data_out[44]
+ la_data_out[45] la_data_out[46] la_data_out[47] la_data_out[48] la_data_out[49]
+ la_data_out[4] la_data_out[50] la_data_out[51] la_data_out[52] la_data_out[53] la_data_out[54]
+ la_data_out[55] la_data_out[56] la_data_out[57] la_data_out[58] la_data_out[59]
+ la_data_out[5] la_data_out[60] la_data_out[61] la_data_out[62] la_data_out[63] la_data_out[64]
+ la_data_out[65] la_data_out[66] la_data_out[67] la_data_out[68] la_data_out[69]
+ la_data_out[6] la_data_out[70] la_data_out[71] la_data_out[72] la_data_out[73] la_data_out[74]
+ la_data_out[75] la_data_out[76] la_data_out[77] la_data_out[78] la_data_out[79]
+ la_data_out[7] la_data_out[80] la_data_out[81] la_data_out[82] la_data_out[83] la_data_out[84]
+ la_data_out[85] la_data_out[86] la_data_out[87] la_data_out[88] la_data_out[89]
+ la_data_out[8] la_data_out[90] la_data_out[91] la_data_out[92] la_data_out[93] la_data_out[94]
+ la_data_out[95] la_data_out[96] la_data_out[97] la_data_out[98] la_data_out[99]
+ la_data_out[9] la_oenb[0] la_oenb[100] la_oenb[101] la_oenb[102] la_oenb[103] la_oenb[104]
+ la_oenb[105] la_oenb[106] la_oenb[107] la_oenb[108] la_oenb[109] la_oenb[10] la_oenb[110]
+ la_oenb[111] la_oenb[112] la_oenb[113] la_oenb[114] la_oenb[115] la_oenb[116] la_oenb[117]
+ la_oenb[118] la_oenb[119] la_oenb[11] la_oenb[120] la_oenb[121] la_oenb[122] la_oenb[123]
+ la_oenb[124] la_oenb[125] la_oenb[126] la_oenb[127] la_oenb[12] la_oenb[13] la_oenb[14]
+ la_oenb[15] la_oenb[16] la_oenb[17] la_oenb[18] la_oenb[19] la_oenb[1] la_oenb[20]
+ la_oenb[21] la_oenb[22] la_oenb[23] la_oenb[24] la_oenb[25] la_oenb[26] la_oenb[27]
+ la_oenb[28] la_oenb[29] la_oenb[2] la_oenb[30] la_oenb[31] la_oenb[32] la_oenb[33]
+ la_oenb[34] la_oenb[35] la_oenb[36] la_oenb[37] la_oenb[38] la_oenb[39] la_oenb[3]
+ la_oenb[40] la_oenb[41] la_oenb[42] la_oenb[43] la_oenb[44] la_oenb[45] la_oenb[46]
+ la_oenb[47] la_oenb[48] la_oenb[49] la_oenb[4] la_oenb[50] la_oenb[51] la_oenb[52]
+ la_oenb[53] la_oenb[54] la_oenb[55] la_oenb[56] la_oenb[57] la_oenb[58] la_oenb[59]
+ la_oenb[5] la_oenb[60] la_oenb[61] la_oenb[62] la_oenb[63] la_oenb[64] la_oenb[65]
+ la_oenb[66] la_oenb[67] la_oenb[68] la_oenb[69] la_oenb[6] la_oenb[70] la_oenb[71]
+ la_oenb[72] la_oenb[73] la_oenb[74] la_oenb[75] la_oenb[76] la_oenb[77] la_oenb[78]
+ la_oenb[79] la_oenb[7] la_oenb[80] la_oenb[81] la_oenb[82] la_oenb[83] la_oenb[84]
+ la_oenb[85] la_oenb[86] la_oenb[87] la_oenb[88] la_oenb[89] la_oenb[8] la_oenb[90]
+ la_oenb[91] la_oenb[92] la_oenb[93] la_oenb[94] la_oenb[95] la_oenb[96] la_oenb[97]
+ la_oenb[98] la_oenb[99] la_oenb[9] user_clock2 user_irq[0] user_irq[1] user_irq[2]
+ vccd1 vccd2 vdda1 vdda2 vssa1 vssa2 vssd1 vssd2 wb_clk_i wb_rst_i wbs_ack_o wbs_adr_i[0]
+ wbs_adr_i[10] wbs_adr_i[11] wbs_adr_i[12] wbs_adr_i[13] wbs_adr_i[14] wbs_adr_i[15]
+ wbs_adr_i[16] wbs_adr_i[17] wbs_adr_i[18] wbs_adr_i[19] wbs_adr_i[1] wbs_adr_i[20]
+ wbs_adr_i[21] wbs_adr_i[22] wbs_adr_i[23] wbs_adr_i[24] wbs_adr_i[25] wbs_adr_i[26]
+ wbs_adr_i[27] wbs_adr_i[28] wbs_adr_i[29] wbs_adr_i[2] wbs_adr_i[30] wbs_adr_i[31]
+ wbs_adr_i[3] wbs_adr_i[4] wbs_adr_i[5] wbs_adr_i[6] wbs_adr_i[7] wbs_adr_i[8] wbs_adr_i[9]
+ wbs_cyc_i wbs_dat_i[0] wbs_dat_i[10] wbs_dat_i[11] wbs_dat_i[12] wbs_dat_i[13] wbs_dat_i[14]
+ wbs_dat_i[15] wbs_dat_i[16] wbs_dat_i[17] wbs_dat_i[18] wbs_dat_i[19] wbs_dat_i[1]
+ wbs_dat_i[20] wbs_dat_i[21] wbs_dat_i[22] wbs_dat_i[23] wbs_dat_i[24] wbs_dat_i[25]
+ wbs_dat_i[26] wbs_dat_i[27] wbs_dat_i[28] wbs_dat_i[29] wbs_dat_i[2] wbs_dat_i[30]
+ wbs_dat_i[31] wbs_dat_i[3] wbs_dat_i[4] wbs_dat_i[5] wbs_dat_i[6] wbs_dat_i[7] wbs_dat_i[8]
+ wbs_dat_i[9] wbs_dat_o[0] wbs_dat_o[10] wbs_dat_o[11] wbs_dat_o[12] wbs_dat_o[13]
+ wbs_dat_o[14] wbs_dat_o[15] wbs_dat_o[16] wbs_dat_o[17] wbs_dat_o[18] wbs_dat_o[19]
+ wbs_dat_o[1] wbs_dat_o[20] wbs_dat_o[21] wbs_dat_o[22] wbs_dat_o[23] wbs_dat_o[24]
+ wbs_dat_o[25] wbs_dat_o[26] wbs_dat_o[27] wbs_dat_o[28] wbs_dat_o[29] wbs_dat_o[2]
+ wbs_dat_o[30] wbs_dat_o[31] wbs_dat_o[3] wbs_dat_o[4] wbs_dat_o[5] wbs_dat_o[6]
+ wbs_dat_o[7] wbs_dat_o[8] wbs_dat_o[9] wbs_sel_i[0] wbs_sel_i[1] wbs_sel_i[2] wbs_sel_i[3]
+ wbs_stb_i wbs_we_i
C0 divider_0/tspc_0/Z3 divider_0/tspc_0/a_630_n680# 0.05fF
C1 divider_0/prescaler_0/tspc_1/Z3 divider_0/clk 0.45fF
C2 divider_0/tspc_2/Q divider_0/tspc_1/a_630_n680# 0.01fF
C3 divider_0/mc2 divider_0/nor_0/A 0.04fF
C4 divider_0/tspc_2/Q divider_0/tspc_1/Z2 0.14fF
C5 divider_0/and_0/out1 divider_0/and_0/A 0.01fF
C6 divider_0/prescaler_0/tspc_0/Z4 divider_0/clk 0.12fF
C7 divider_0/prescaler_0/tspc_2/Z3 divider_0/clk 0.45fF
C8 divider_0/tspc_0/Z3 divider_0/tspc_1/Q 0.45fF
C9 divider_0/prescaler_0/tspc_0/Z1 divider_0/prescaler_0/tspc_0/Z3 0.06fF
C10 divider_0/tspc_2/Q divider_0/tspc_1/Z1 0.01fF
C11 divider_0/tspc_1/a_630_n680# divider_0/nor_0/B 0.35fF
C12 divider_0/nor_0/B divider_0/tspc_1/Z2 0.30fF
C13 divider_0/prescaler_0/tspc_2/Z3 divider_0/prescaler_0/tspc_2/a_630_n680# 0.05fF
C14 divider_0/prescaler_0/tspc_2/Z4 divider_0/prescaler_0/tspc_2/a_740_n680# 0.08fF
C15 io_clamp_low[1] io_clamp_high[1] 0.53fF
C16 divider_0/and_0/OUT divider_0/prescaler_0/nand_0/z1 0.01fF
C17 divider_0/tspc_2/a_630_n680# divider_0/nor_0/A 0.35fF
C18 divider_0/nor_1/Z1 divider_0/nor_1/B 0.06fF
C19 divider_0/prescaler_0/tspc_1/Z4 divider_0/clk 0.12fF
C20 divider_0/prescaler_0/tspc_1/Q divider_0/clk 0.60fF
C21 divider_0/tspc_1/a_630_n680# divider_0/tspc_1/Z3 0.05fF
C22 divider_0/tspc_1/Z2 divider_0/tspc_1/Z3 0.16fF
C23 divider_0/prescaler_0/tspc_2/Z1 divider_0/prescaler_0/tspc_2/D 0.15fF
C24 divider_0/nor_0/B divider_0/tspc_1/Z1 0.03fF
C25 divider_0/prescaler_0/tspc_2/Q divider_0/prescaler_0/tspc_2/a_740_n680# 0.20fF
C26 divider_0/prescaler_0/tspc_2/Z4 divider_0/clk 0.12fF
C27 divider_0/nor_1/B divider_0/and_0/B 0.29fF
C28 divider_0/tspc_0/Z3 divider_0/tspc_0/Z4 0.65fF
C29 divider_0/prescaler_0/tspc_0/Z1 divider_0/prescaler_0/tspc_0/Z4 0.00fF
C30 divider_0/nor_0/A divider_0/and_0/A 0.01fF
C31 divider_0/tspc_1/Q divider_0/nor_0/B 0.51fF
C32 divider_0/prescaler_0/tspc_1/Z1 divider_0/prescaler_0/tspc_1/Z3 0.06fF
C33 divider_0/tspc_1/Z1 divider_0/tspc_1/Z3 0.06fF
C34 divider_0/tspc_0/Z1 divider_0/tspc_0/Z2 1.07fF
C35 divider_0/prescaler_0/tspc_2/Z4 divider_0/prescaler_0/tspc_2/a_630_n680# 0.12fF
C36 divider_0/prescaler_0/tspc_2/D divider_0/prescaler_0/nand_0/z1 0.24fF
C37 divider_0/prescaler_0/tspc_0/a_740_n680# divider_0/clk 0.14fF
C38 divider_0/nor_1/Z1 divider_0/and_0/B 0.78fF
C39 divider_0/tspc_2/a_630_n680# divider_0/tspc_2/Z2 0.01fF
C40 divider_0/and_0/OUT divider_0/and_0/Z1 0.04fF
C41 divider_0/prescaler_0/tspc_2/Q divider_0/clk 0.05fF
C42 divider_0/prescaler_0/Out divider_0/prescaler_0/tspc_1/Z2 0.19fF
C43 divider_0/tspc_1/a_630_n680# divider_0/tspc_1/Z4 0.12fF
C44 divider_0/tspc_1/Q divider_0/tspc_1/Z3 0.05fF
C45 divider_0/tspc_1/Z2 divider_0/tspc_1/Z4 0.36fF
C46 divider_0/prescaler_0/tspc_2/Z3 divider_0/prescaler_0/tspc_2/D 0.05fF
C47 divider_0/prescaler_0/tspc_2/Q divider_0/prescaler_0/tspc_2/a_630_n680# 0.04fF
C48 divider_0/and_0/out1 divider_0/and_0/Z1 0.36fF
C49 divider_0/prescaler_0/m1_2700_2190# divider_0/clk 0.01fF
C50 divider_0/mc2 divider_0/nor_0/B 0.06fF
C51 divider_0/prescaler_0/tspc_0/Z3 divider_0/prescaler_0/tspc_0/Z4 0.65fF
C52 divider_0/nor_1/B divider_0/tspc_0/Z1 0.03fF
C53 divider_0/prescaler_0/tspc_2/Z1 divider_0/prescaler_0/tspc_2/Z3 0.06fF
C54 divider_0/tspc_0/Z4 divider_0/nor_0/B 0.02fF
C55 divider_0/prescaler_0/tspc_1/Z1 divider_0/prescaler_0/tspc_1/Z4 0.00fF
C56 divider_0/tspc_2/Q divider_0/tspc_2/a_630_n680# 0.04fF
C57 divider_0/tspc_1/Z1 divider_0/tspc_1/Z4 0.00fF
C58 divider_0/and_0/OUT divider_0/prescaler_0/tspc_2/Q 0.04fF
C59 io_clamp_low[0] io_clamp_high[0] 0.53fF
C60 divider_0/prescaler_0/tspc_0/a_630_n680# divider_0/clk 0.01fF
C61 divider_0/nor_0/A divider_0/tspc_2/Z2 0.23fF
C62 divider_0/Out divider_0/nor_1/B 0.22fF
C63 divider_0/prescaler_0/tspc_0/D divider_0/clk 0.29fF
C64 divider_0/tspc_0/a_630_n680# divider_0/tspc_0/Z2 0.01fF
C65 divider_0/prescaler_0/tspc_0/Z3 divider_0/prescaler_0/tspc_1/Q 0.13fF
C66 divider_0/prescaler_0/m1_2700_2190# divider_0/and_0/OUT 0.14fF
C67 divider_0/prescaler_0/tspc_2/Z4 divider_0/prescaler_0/tspc_2/D 0.11fF
C68 io_clamp_high[2] io_analog[6] 0.53fF
C69 divider_0/nor_0/Z1 divider_0/and_0/A 0.80fF
C70 divider_0/nor_0/B divider_0/tspc_2/a_630_n680# 0.01fF
C71 divider_0/prescaler_0/tspc_1/Q divider_0/nor_0/A 0.03fF
C72 divider_0/prescaler_0/tspc_1/a_630_n680# divider_0/clk 0.01fF
C73 divider_0/tspc_1/a_630_n680# divider_0/nor_1/B 0.00fF
C74 divider_0/prescaler_0/tspc_2/Z1 divider_0/prescaler_0/tspc_2/Z4 0.00fF
C75 divider_0/prescaler_0/tspc_1/Z3 divider_0/prescaler_0/tspc_1/Z4 0.65fF
C76 divider_0/tspc_1/Q divider_0/tspc_0/Z2 0.14fF
C77 divider_0/prescaler_0/Out divider_0/tspc_2/Z3 0.45fF
C78 divider_0/tspc_2/Q divider_0/nor_0/A 0.55fF
C79 divider_0/prescaler_0/tspc_1/Z3 divider_0/prescaler_0/tspc_1/Q 0.21fF
C80 divider_0/tspc_2/Z1 divider_0/tspc_2/Z3 0.06fF
C81 divider_0/prescaler_0/tspc_0/a_740_n680# divider_0/prescaler_0/tspc_0/Z3 0.33fF
C82 divider_0/tspc_0/a_630_n680# divider_0/nor_1/B 0.35fF
C83 divider_0/nor_0/B divider_0/and_0/A 0.26fF
C84 divider_0/prescaler_0/tspc_0/Z4 divider_0/prescaler_0/tspc_1/Q 0.21fF
C85 divider_0/prescaler_0/m1_2700_2190# divider_0/prescaler_0/tspc_2/D 0.16fF
C86 divider_0/prescaler_0/tspc_0/Z1 divider_0/prescaler_0/tspc_0/D 0.03fF
C87 io_clamp_low[1] io_analog[5] 0.53fF
C88 divider_0/nor_0/B divider_0/nor_0/A 1.21fF
C89 divider_0/tspc_1/Q divider_0/nor_1/B 0.22fF
C90 divider_0/prescaler_0/tspc_2/Z3 divider_0/prescaler_0/tspc_2/Z4 0.65fF
C91 divider_0/tspc_0/Z4 divider_0/tspc_0/Z2 0.36fF
C92 divider_0/prescaler_0/m1_2700_2190# divider_0/nor_0/A 0.01fF
C93 divider_0/prescaler_0/Out divider_0/tspc_2/Z4 0.12fF
C94 divider_0/prescaler_0/tspc_0/Z2 divider_0/clk 0.11fF
C95 divider_0/tspc_2/Z1 divider_0/tspc_2/Z4 0.00fF
C96 divider_0/prescaler_0/tspc_0/a_630_n680# divider_0/prescaler_0/tspc_0/Z3 0.05fF
C97 divider_0/prescaler_0/tspc_0/a_740_n680# divider_0/prescaler_0/tspc_0/Z4 0.08fF
C98 divider_0/prescaler_0/m1_2700_2190# divider_0/prescaler_0/tspc_1/Z3 0.33fF
C99 divider_0/prescaler_0/m1_2700_2190# divider_0/prescaler_0/nand_0/z1 0.07fF
C100 divider_0/prescaler_0/tspc_0/Z3 divider_0/prescaler_0/tspc_0/D 0.05fF
C101 divider_0/prescaler_0/tspc_2/Z3 divider_0/prescaler_0/tspc_2/Q 0.05fF
C102 divider_0/mc2 divider_0/nor_1/B 0.15fF
C103 divider_0/prescaler_0/tspc_1/Z2 divider_0/clk 0.11fF
C104 divider_0/prescaler_0/tspc_0/a_740_n680# divider_0/prescaler_0/tspc_1/Z4 0.01fF
C105 divider_0/tspc_0/Z4 divider_0/nor_1/B 0.22fF
C106 divider_0/prescaler_0/tspc_0/a_740_n680# divider_0/prescaler_0/tspc_1/Q 0.15fF
C107 divider_0/prescaler_0/tspc_0/Z2 divider_0/and_0/OUT 0.06fF
C108 divider_0/tspc_1/Z4 divider_0/nor_0/A 0.02fF
C109 divider_0/prescaler_0/tspc_1/Q divider_0/prescaler_0/tspc_2/Q 0.19fF
C110 divider_0/prescaler_0/Out divider_0/clk 0.51fF
C111 divider_0/prescaler_0/tspc_2/Z2 divider_0/clk 0.11fF
C112 divider_0/tspc_2/Z3 divider_0/tspc_2/Z4 0.65fF
C113 divider_0/prescaler_0/tspc_0/a_630_n680# divider_0/prescaler_0/tspc_0/Z4 0.12fF
C114 divider_0/prescaler_0/tspc_0/Z1 divider_0/prescaler_0/tspc_0/Z2 1.07fF
C115 divider_0/nor_0/Z1 divider_0/nor_0/B 0.06fF
C116 divider_0/tspc_2/Q divider_0/nor_0/B 0.22fF
C117 divider_0/prescaler_0/tspc_1/a_630_n680# divider_0/prescaler_0/tspc_1/Z3 0.05fF
C118 divider_0/prescaler_0/m1_2700_2190# divider_0/prescaler_0/tspc_1/Z4 0.08fF
C119 divider_0/prescaler_0/tspc_1/Z2 divider_0/and_0/OUT 0.06fF
C120 divider_0/prescaler_0/m1_2700_2190# divider_0/prescaler_0/tspc_1/Q 0.38fF
C121 divider_0/prescaler_0/tspc_0/Z4 divider_0/prescaler_0/tspc_0/D 0.11fF
C122 divider_0/prescaler_0/tspc_2/Z2 divider_0/prescaler_0/tspc_2/a_630_n680# 0.01fF
C123 io_clamp_high[0] io_analog[4] 0.53fF
C124 divider_0/mc2 divider_0/and_0/B 0.20fF
C125 divider_0/Out divider_0/tspc_0/a_630_n680# 0.04fF
C126 divider_0/and_0/OUT divider_0/and_0/B 0.01fF
C127 divider_0/tspc_1/Q divider_0/tspc_0/Z1 0.01fF
C128 divider_0/tspc_1/a_630_n680# divider_0/tspc_1/Z2 0.01fF
C129 divider_0/tspc_2/Q divider_0/tspc_1/Z3 0.45fF
C130 divider_0/prescaler_0/tspc_2/Z2 divider_0/and_0/OUT 0.05fF
C131 divider_0/and_0/out1 divider_0/and_0/B 0.18fF
C132 divider_0/prescaler_0/tspc_1/Q divider_0/prescaler_0/tspc_0/D 0.32fF
C133 divider_0/prescaler_0/tspc_0/Z2 divider_0/prescaler_0/tspc_0/Z3 0.16fF
C134 divider_0/prescaler_0/tspc_1/a_630_n680# divider_0/prescaler_0/tspc_1/Z4 0.12fF
C135 divider_0/prescaler_0/tspc_1/Z1 divider_0/prescaler_0/tspc_1/Z2 1.07fF
C136 divider_0/prescaler_0/Out divider_0/tspc_2/a_630_n680# 0.01fF
C137 divider_0/tspc_1/Z1 divider_0/tspc_1/Z2 1.07fF
C138 divider_0/nor_0/B divider_0/tspc_1/Z3 0.38fF
C139 divider_0/prescaler_0/tspc_1/a_630_n680# divider_0/prescaler_0/tspc_1/Q 0.04fF
C140 divider_0/prescaler_0/tspc_0/a_740_n680# divider_0/prescaler_0/tspc_0/a_630_n680# 0.19fF
C141 divider_0/tspc_1/a_630_n680# divider_0/tspc_1/Q 0.04fF
C142 divider_0/prescaler_0/Out divider_0/prescaler_0/tspc_1/Z1 0.08fF
C143 divider_0/tspc_0/Z3 divider_0/tspc_0/Z2 0.16fF
C144 divider_0/tspc_2/Q divider_0/tspc_1/Z4 0.15fF
C145 divider_0/tspc_0/Z4 divider_0/tspc_0/Z1 0.00fF
C146 divider_0/prescaler_0/tspc_2/Z2 divider_0/prescaler_0/tspc_2/D 0.09fF
C147 divider_0/and_0/A divider_0/and_0/B 0.18fF
C148 divider_0/prescaler_0/tspc_2/Q divider_0/prescaler_0/tspc_0/D 0.04fF
C149 divider_0/prescaler_0/tspc_1/Q divider_0/prescaler_0/nand_1/z1 0.22fF
C150 divider_0/tspc_0/a_630_n680# divider_0/tspc_1/Q 0.01fF
C151 divider_0/prescaler_0/tspc_0/Z2 divider_0/prescaler_0/tspc_0/Z4 0.36fF
C152 divider_0/prescaler_0/tspc_0/Z3 divider_0/prescaler_0/Out 0.05fF
C153 divider_0/prescaler_0/tspc_2/Z1 divider_0/prescaler_0/tspc_2/Z2 1.07fF
C154 divider_0/nor_0/A divider_0/and_0/B 0.08fF
C155 divider_0/prescaler_0/tspc_1/Z2 divider_0/prescaler_0/tspc_1/Z3 0.16fF
C156 divider_0/prescaler_0/Out divider_0/nor_0/A 0.15fF
C157 divider_0/nor_0/B divider_0/tspc_1/Z4 0.21fF
C158 divider_0/nor_0/A divider_0/tspc_2/Z1 0.03fF
C159 divider_0/tspc_2/a_630_n680# divider_0/tspc_2/Z3 0.05fF
C160 divider_0/tspc_0/Z3 divider_0/nor_1/B 0.38fF
C161 divider_0/prescaler_0/tspc_2/a_740_n680# divider_0/clk 0.01fF
C162 divider_0/prescaler_0/m1_2700_2190# divider_0/prescaler_0/tspc_1/a_630_n680# 0.19fF
C163 divider_0/prescaler_0/Out divider_0/prescaler_0/tspc_1/Z3 0.11fF
C164 divider_0/prescaler_0/tspc_0/Z2 divider_0/prescaler_0/tspc_1/Q 0.06fF
C165 divider_0/tspc_1/Z3 divider_0/tspc_1/Z4 0.65fF
C166 io_clamp_low[2] io_analog[6] 0.53fF
C167 divider_0/nor_0/B divider_0/tspc_0/Z2 0.20fF
C168 divider_0/prescaler_0/tspc_2/a_740_n680# divider_0/prescaler_0/tspc_2/a_630_n680# 0.19fF
C169 divider_0/prescaler_0/tspc_2/Q divider_0/prescaler_0/nand_1/z1 0.01fF
C170 divider_0/tspc_0/a_630_n680# divider_0/tspc_0/Z4 0.12fF
C171 divider_0/prescaler_0/tspc_2/Z2 divider_0/prescaler_0/tspc_2/Z3 0.16fF
C172 divider_0/prescaler_0/tspc_1/Z2 divider_0/prescaler_0/tspc_1/Z4 0.36fF
C173 divider_0/prescaler_0/Out divider_0/tspc_2/Z2 0.11fF
C174 divider_0/prescaler_0/tspc_1/Z2 divider_0/prescaler_0/tspc_1/Q 0.06fF
C175 divider_0/tspc_2/a_630_n680# divider_0/tspc_2/Z4 0.12fF
C176 divider_0/tspc_2/Z1 divider_0/tspc_2/Z2 1.07fF
C177 divider_0/nor_0/A divider_0/tspc_2/Z3 0.38fF
C178 divider_0/prescaler_0/tspc_2/a_630_n680# divider_0/clk 0.01fF
C179 divider_0/tspc_1/Q divider_0/tspc_0/Z4 0.15fF
C180 divider_0/prescaler_0/Out divider_0/prescaler_0/tspc_1/Z4 0.28fF
C181 divider_0/nor_0/B divider_0/nor_1/B 0.47fF
C182 divider_0/prescaler_0/Out divider_0/prescaler_0/tspc_1/Q 0.91fF
C183 divider_0/nor_0/Z1 divider_0/and_0/B 0.18fF
C184 divider_0/and_0/B divider_0/and_0/Z1 0.07fF
C185 divider_0/prescaler_0/tspc_0/D divider_0/prescaler_0/nand_1/z1 0.21fF
C186 divider_0/and_0/OUT divider_0/clk 0.04fF
C187 divider_0/nor_1/Z1 divider_0/nor_0/B 0.18fF
C188 divider_0/prescaler_0/tspc_0/a_740_n680# divider_0/prescaler_0/tspc_1/Z2 0.01fF
C189 divider_0/mc2 divider_0/prescaler_0/tspc_2/a_630_n680# 0.33fF
C190 divider_0/prescaler_0/tspc_2/Z2 divider_0/prescaler_0/tspc_2/Z4 0.36fF
C191 divider_0/tspc_1/Z2 divider_0/nor_0/A 0.15fF
C192 divider_0/nor_0/A divider_0/tspc_2/Z4 0.21fF
C193 divider_0/tspc_2/Z2 divider_0/tspc_2/Z3 0.16fF
C194 divider_0/prescaler_0/tspc_0/a_630_n680# divider_0/prescaler_0/tspc_0/Z2 0.01fF
C195 divider_0/prescaler_0/tspc_0/a_740_n680# divider_0/prescaler_0/Out 0.21fF
C196 divider_0/mc2 divider_0/and_0/OUT 0.05fF
C197 divider_0/tspc_0/Z3 divider_0/tspc_0/Z1 0.06fF
C198 divider_0/nor_0/B divider_0/and_0/B 0.31fF
C199 divider_0/prescaler_0/tspc_0/Z2 divider_0/prescaler_0/tspc_0/D 0.09fF
C200 io_clamp_low[2] io_clamp_high[2] 0.53fF
C201 io_clamp_high[1] io_analog[5] 0.53fF
C202 divider_0/mc2 divider_0/and_0/out1 0.06fF
C203 divider_0/tspc_0/Z3 divider_0/Out 0.05fF
C204 divider_0/and_0/OUT divider_0/and_0/out1 0.31fF
C205 divider_0/prescaler_0/tspc_2/D divider_0/clk 0.26fF
C206 divider_0/prescaler_0/Out divider_0/prescaler_0/m1_2700_2190# 0.11fF
C207 divider_0/tspc_2/Q divider_0/tspc_2/Z3 0.05fF
C208 divider_0/prescaler_0/tspc_0/Z3 divider_0/clk 0.64fF
C209 divider_0/tspc_2/Z2 divider_0/tspc_2/Z4 0.36fF
C210 divider_0/prescaler_0/tspc_0/a_630_n680# divider_0/prescaler_0/Out 0.04fF
C211 divider_0/prescaler_0/tspc_1/a_630_n680# divider_0/prescaler_0/tspc_1/Z2 0.01fF
C212 divider_0/nor_1/B divider_0/tspc_0/Z2 0.40fF
C213 divider_0/prescaler_0/tspc_2/Z3 divider_0/prescaler_0/tspc_2/a_740_n680# 0.33fF
C214 divider_0/and_0/OUT divider_0/prescaler_0/tspc_2/D 0.03fF
C215 io_clamp_low[0] io_analog[4] 0.53fF
C216 divider_0/mc2 divider_0/and_0/A 0.16fF
Xdivider_0 gnd vdd divider_0/Out divider_0/clk divider_0/mc2 divider
C217 io_analog[4] gnd 25.05fF
C218 io_analog[5] gnd 25.05fF
C219 io_analog[6] gnd 25.05fF
C220 io_in_3v3[0] gnd 0.61fF
C221 io_oeb[26] gnd 0.61fF
C222 io_in[0] gnd 0.61fF
C223 io_out[26] gnd 0.61fF
C224 io_out[0] gnd 0.61fF
C225 io_in[26] gnd 0.61fF
C226 io_oeb[0] gnd 0.61fF
C227 io_in_3v3[26] gnd 0.61fF
C228 io_in_3v3[1] gnd 0.61fF
C229 io_oeb[25] gnd 0.61fF
C230 io_in[1] gnd 0.61fF
C231 io_out[25] gnd 0.61fF
C232 io_out[1] gnd 0.61fF
C233 io_in[25] gnd 0.61fF
C234 io_oeb[1] gnd 0.61fF
C235 io_in_3v3[25] gnd 0.61fF
C236 io_in_3v3[2] gnd 0.61fF
C237 io_oeb[24] gnd 0.61fF
C238 io_in[2] gnd 0.61fF
C239 io_out[24] gnd 0.61fF
C240 io_out[2] gnd 0.61fF
C241 io_in[24] gnd 0.61fF
C242 io_oeb[2] gnd 0.61fF
C243 io_in_3v3[24] gnd 0.61fF
C244 io_in_3v3[3] gnd 0.61fF
C245 gpio_noesd[17] gnd 0.61fF
C246 io_in[3] gnd 0.61fF
C247 gpio_analog[17] gnd 0.61fF
C248 io_out[3] gnd 0.61fF
C249 io_oeb[3] gnd 0.61fF
C250 io_in_3v3[4] gnd 0.61fF
C251 io_in[4] gnd 0.61fF
C252 io_out[4] gnd 0.61fF
C253 io_oeb[4] gnd 0.61fF
C254 io_oeb[23] gnd 0.61fF
C255 io_out[23] gnd 0.61fF
C256 io_in[23] gnd 0.61fF
C257 io_in_3v3[23] gnd 0.61fF
C258 gpio_noesd[16] gnd 0.61fF
C259 gpio_analog[16] gnd 0.61fF
C260 io_in_3v3[5] gnd 0.61fF
C261 io_in[5] gnd 0.61fF
C262 io_out[5] gnd 0.61fF
C263 io_oeb[5] gnd 0.61fF
C264 io_oeb[22] gnd 0.61fF
C265 io_out[22] gnd 0.61fF
C266 io_in[22] gnd 0.61fF
C267 io_in_3v3[22] gnd 0.61fF
C268 gpio_noesd[15] gnd 0.61fF
C269 gpio_analog[15] gnd 0.61fF
C270 io_in_3v3[6] gnd 0.61fF
C271 io_in[6] gnd 0.61fF
C272 io_out[6] gnd 0.61fF
C273 io_oeb[6] gnd 0.61fF
C274 io_oeb[21] gnd 0.61fF
C275 io_out[21] gnd 0.61fF
C276 io_in[21] gnd 0.61fF
C277 io_in_3v3[21] gnd 0.61fF
C278 gpio_noesd[14] gnd 0.61fF
C279 gpio_analog[14] gnd 0.61fF
C280 vssa1 gnd 26.08fF
C281 vssd2 gnd 13.04fF
C282 vssd1 gnd 13.04fF
C283 vdda2 gnd 13.04fF
C284 vdda1 gnd 26.08fF
C285 io_oeb[20] gnd 0.61fF
C286 io_out[20] gnd 0.61fF
C287 io_in[20] gnd 0.61fF
C288 io_in_3v3[20] gnd 0.61fF
C289 gpio_noesd[13] gnd 0.61fF
C290 gpio_analog[13] gnd 0.61fF
C291 gpio_analog[0] gnd 0.61fF
C292 gpio_noesd[0] gnd 0.61fF
C293 io_in_3v3[7] gnd 0.61fF
C294 io_in[7] gnd 0.61fF
C295 io_out[7] gnd 0.61fF
C296 io_oeb[7] gnd 0.61fF
C297 io_oeb[19] gnd 0.61fF
C298 io_out[19] gnd 0.61fF
C299 io_in[19] gnd 0.61fF
C300 io_in_3v3[19] gnd 0.61fF
C301 gpio_noesd[12] gnd 0.61fF
C302 gpio_analog[12] gnd 0.61fF
C303 gpio_analog[1] gnd 0.61fF
C304 gpio_noesd[1] gnd 0.61fF
C305 io_in_3v3[8] gnd 0.61fF
C306 io_in[8] gnd 0.61fF
C307 io_out[8] gnd 0.61fF
C308 io_oeb[8] gnd 0.61fF
C309 io_oeb[18] gnd 0.61fF
C310 io_out[18] gnd 0.61fF
C311 io_in[18] gnd 0.61fF
C312 io_in_3v3[18] gnd 0.61fF
C313 gpio_noesd[11] gnd 0.61fF
C314 gpio_analog[11] gnd 0.61fF
C315 gpio_analog[2] gnd 0.61fF
C316 gpio_noesd[2] gnd 0.61fF
C317 io_in_3v3[9] gnd 0.61fF
C318 io_in[9] gnd 0.61fF
C319 io_out[9] gnd 0.61fF
C320 io_oeb[9] gnd 0.61fF
C321 io_oeb[17] gnd 0.61fF
C322 io_out[17] gnd 0.61fF
C323 io_in[17] gnd 0.61fF
C324 io_in_3v3[17] gnd 0.61fF
C325 gpio_noesd[10] gnd 0.61fF
C326 gpio_analog[10] gnd 0.61fF
C327 gpio_analog[3] gnd 0.61fF
C328 gpio_noesd[3] gnd 0.61fF
C329 io_in_3v3[10] gnd 0.61fF
C330 io_in[10] gnd 0.61fF
C331 io_out[10] gnd 0.61fF
C332 io_oeb[10] gnd 0.61fF
C333 io_oeb[16] gnd 0.61fF
C334 io_out[16] gnd 0.61fF
C335 io_in[16] gnd 0.61fF
C336 io_in_3v3[16] gnd 0.61fF
C337 gpio_noesd[9] gnd 0.61fF
C338 gpio_analog[9] gnd 0.61fF
C339 gpio_analog[4] gnd 0.61fF
C340 gpio_noesd[4] gnd 0.61fF
C341 io_in_3v3[11] gnd 0.61fF
C342 io_in[11] gnd 0.61fF
C343 io_out[11] gnd 0.61fF
C344 io_oeb[11] gnd 0.61fF
C345 io_oeb[15] gnd 0.61fF
C346 io_out[15] gnd 0.61fF
C347 io_in[15] gnd 0.61fF
C348 io_in_3v3[15] gnd 0.61fF
C349 gpio_noesd[8] gnd 0.61fF
C350 gpio_analog[8] gnd 0.61fF
C351 gpio_analog[5] gnd 0.61fF
C352 gpio_noesd[5] gnd 0.61fF
C353 io_in_3v3[12] gnd 0.61fF
C354 io_in[12] gnd 0.61fF
C355 io_out[12] gnd 0.61fF
C356 io_oeb[12] gnd 0.61fF
C357 io_oeb[14] gnd 0.61fF
C358 io_out[14] gnd 0.61fF
C359 io_in[14] gnd 0.61fF
C360 io_in_3v3[14] gnd 0.61fF
C361 gpio_noesd[7] gnd 0.61fF
C362 gpio_analog[7] gnd 0.61fF
C363 vssa2 gnd 13.04fF
C364 gpio_analog[6] gnd 0.61fF
C365 gpio_noesd[6] gnd 0.61fF
C366 io_in_3v3[13] gnd 0.61fF
C367 io_in[13] gnd 0.61fF
C368 io_out[13] gnd 0.61fF
C369 io_oeb[13] gnd 0.61fF
C370 vccd1 gnd 13.04fF
C371 vccd2 gnd 13.04fF
C372 io_analog[0] gnd 6.83fF
C373 io_analog[10] gnd 6.83fF
C374 io_analog[1] gnd 6.83fF
C375 io_analog[2] gnd 6.83fF
C376 io_analog[3] gnd 6.83fF
C377 io_clamp_high[0] gnd 3.58fF
C378 io_clamp_low[0] gnd 3.58fF
C379 io_clamp_high[1] gnd 3.58fF
C380 io_clamp_low[1] gnd 3.58fF
C381 io_clamp_high[2] gnd 3.58fF
C382 io_clamp_low[2] gnd 3.58fF
C383 io_analog[7] gnd 6.83fF
C384 io_analog[8] gnd 6.83fF
C385 io_analog[9] gnd 6.83fF
C386 user_irq[2] gnd 0.63fF
C387 user_irq[1] gnd 0.63fF
C388 user_irq[0] gnd 0.63fF
C389 user_clock2 gnd 0.63fF
C390 la_oenb[127] gnd 0.63fF
C391 la_data_out[127] gnd 0.63fF
C392 la_data_in[127] gnd 0.63fF
C393 la_oenb[126] gnd 0.63fF
C394 la_data_out[126] gnd 0.63fF
C395 la_data_in[126] gnd 0.63fF
C396 la_oenb[125] gnd 0.63fF
C397 la_data_out[125] gnd 0.63fF
C398 la_data_in[125] gnd 0.63fF
C399 la_oenb[124] gnd 0.63fF
C400 la_data_out[124] gnd 0.63fF
C401 la_data_in[124] gnd 0.63fF
C402 la_oenb[123] gnd 0.63fF
C403 la_data_out[123] gnd 0.63fF
C404 la_data_in[123] gnd 0.63fF
C405 la_oenb[122] gnd 0.63fF
C406 la_data_out[122] gnd 0.63fF
C407 la_data_in[122] gnd 0.63fF
C408 la_oenb[121] gnd 0.63fF
C409 la_data_out[121] gnd 0.63fF
C410 la_data_in[121] gnd 0.63fF
C411 la_oenb[120] gnd 0.63fF
C412 la_data_out[120] gnd 0.63fF
C413 la_data_in[120] gnd 0.63fF
C414 la_oenb[119] gnd 0.63fF
C415 la_data_out[119] gnd 0.63fF
C416 la_data_in[119] gnd 0.63fF
C417 la_oenb[118] gnd 0.63fF
C418 la_data_out[118] gnd 0.63fF
C419 la_data_in[118] gnd 0.63fF
C420 la_oenb[117] gnd 0.63fF
C421 la_data_out[117] gnd 0.63fF
C422 la_data_in[117] gnd 0.63fF
C423 la_oenb[116] gnd 0.63fF
C424 la_data_out[116] gnd 0.63fF
C425 la_data_in[116] gnd 0.63fF
C426 la_oenb[115] gnd 0.63fF
C427 la_data_out[115] gnd 0.63fF
C428 la_data_in[115] gnd 0.63fF
C429 la_oenb[114] gnd 0.63fF
C430 la_data_out[114] gnd 0.63fF
C431 la_data_in[114] gnd 0.63fF
C432 la_oenb[113] gnd 0.63fF
C433 la_data_out[113] gnd 0.63fF
C434 la_data_in[113] gnd 0.63fF
C435 la_oenb[112] gnd 0.63fF
C436 la_data_out[112] gnd 0.63fF
C437 la_data_in[112] gnd 0.63fF
C438 la_oenb[111] gnd 0.63fF
C439 la_data_out[111] gnd 0.63fF
C440 la_data_in[111] gnd 0.63fF
C441 la_oenb[110] gnd 0.63fF
C442 la_data_out[110] gnd 0.63fF
C443 la_data_in[110] gnd 0.63fF
C444 la_oenb[109] gnd 0.63fF
C445 la_data_out[109] gnd 0.63fF
C446 la_data_in[109] gnd 0.63fF
C447 la_oenb[108] gnd 0.63fF
C448 la_data_out[108] gnd 0.63fF
C449 la_data_in[108] gnd 0.63fF
C450 la_oenb[107] gnd 0.63fF
C451 la_data_out[107] gnd 0.63fF
C452 la_data_in[107] gnd 0.63fF
C453 la_oenb[106] gnd 0.63fF
C454 la_data_out[106] gnd 0.63fF
C455 la_data_in[106] gnd 0.63fF
C456 la_oenb[105] gnd 0.63fF
C457 la_data_out[105] gnd 0.63fF
C458 la_data_in[105] gnd 0.63fF
C459 la_oenb[104] gnd 0.63fF
C460 la_data_out[104] gnd 0.63fF
C461 la_data_in[104] gnd 0.63fF
C462 la_oenb[103] gnd 0.63fF
C463 la_data_out[103] gnd 0.63fF