* SPICE3 file created from user_analog_project_wrapper.ext - technology: sky130A

.subckt user_analog_project_wrapper gpio_analog[0] gpio_analog[10] gpio_analog[11]
+ gpio_analog[12] gpio_analog[13] gpio_analog[14] gpio_analog[15] gpio_analog[16]
+ gpio_analog[17] gpio_analog[1] gpio_analog[2] gpio_analog[3] gpio_analog[4] gpio_analog[5]
+ gpio_analog[6] gpio_analog[7] gpio_analog[8] gpio_analog[9] gpio_noesd[0] gpio_noesd[10]
+ gpio_noesd[11] gpio_noesd[12] gpio_noesd[13] gpio_noesd[14] gpio_noesd[15] gpio_noesd[16]
+ gpio_noesd[17] gpio_noesd[1] gpio_noesd[2] gpio_noesd[3] gpio_noesd[4] gpio_noesd[5]
+ gpio_noesd[6] gpio_noesd[7] gpio_noesd[8] gpio_noesd[9] io_analog[0] io_analog[10]
+ io_analog[1] io_analog[2] io_analog[3] io_analog[4] io_analog[5] io_analog[6] io_analog[7]
+ io_analog[8] io_analog[9] io_clamp_high[0] io_clamp_high[1] io_clamp_high[2] io_clamp_low[0]
+ io_clamp_low[1] io_clamp_low[2] io_in[0] io_in[10] io_in[11] io_in[12] io_in[13]
+ io_in[14] io_in[15] io_in[16] io_in[17] io_in[18] io_in[19] io_in[1] io_in[20] io_in[21]
+ io_in[22] io_in[23] io_in[24] io_in[25] io_in[26] io_in[2] io_in[3] io_in[4] io_in[5]
+ io_in[6] io_in[7] io_in[8] io_in[9] io_in_3v3[0] io_in_3v3[10] io_in_3v3[11] io_in_3v3[12]
+ io_in_3v3[13] io_in_3v3[14] io_in_3v3[15] io_in_3v3[16] io_in_3v3[17] io_in_3v3[18]
+ io_in_3v3[19] io_in_3v3[1] io_in_3v3[20] io_in_3v3[21] io_in_3v3[22] io_in_3v3[23]
+ io_in_3v3[24] io_in_3v3[25] io_in_3v3[26] io_in_3v3[2] io_in_3v3[3] io_in_3v3[4]
+ io_in_3v3[5] io_in_3v3[6] io_in_3v3[7] io_in_3v3[8] io_in_3v3[9] io_oeb[0] io_oeb[10]
+ io_oeb[11] io_oeb[12] io_oeb[13] io_oeb[14] io_oeb[15] io_oeb[16] io_oeb[17] io_oeb[18]
+ io_oeb[19] io_oeb[1] io_oeb[20] io_oeb[21] io_oeb[22] io_oeb[23] io_oeb[24] io_oeb[25]
+ io_oeb[26] io_oeb[2] io_oeb[3] io_oeb[4] io_oeb[5] io_oeb[6] io_oeb[7] io_oeb[8]
+ io_oeb[9] io_out[0] io_out[10] io_out[11] io_out[12] io_out[13] io_out[14] io_out[15]
+ io_out[16] io_out[17] io_out[18] io_out[19] io_out[1] io_out[20] io_out[21] io_out[22]
+ io_out[23] io_out[24] io_out[25] io_out[26] io_out[2] io_out[3] io_out[4] io_out[5]
+ io_out[6] io_out[7] io_out[8] io_out[9] la_data_in[0] la_data_in[100] la_data_in[101]
+ la_data_in[102] la_data_in[103] la_data_in[104] la_data_in[105] la_data_in[106]
+ la_data_in[107] la_data_in[108] la_data_in[109] la_data_in[10] la_data_in[110] la_data_in[111]
+ la_data_in[112] la_data_in[113] la_data_in[114] la_data_in[115] la_data_in[116]
+ la_data_in[117] la_data_in[118] la_data_in[119] la_data_in[11] la_data_in[120] la_data_in[121]
+ la_data_in[122] la_data_in[123] la_data_in[124] la_data_in[125] la_data_in[126]
+ la_data_in[127] la_data_in[12] la_data_in[13] la_data_in[14] la_data_in[15] la_data_in[16]
+ la_data_in[17] la_data_in[18] la_data_in[19] la_data_in[1] la_data_in[20] la_data_in[21]
+ la_data_in[22] la_data_in[23] la_data_in[24] la_data_in[25] la_data_in[26] la_data_in[27]
+ la_data_in[28] la_data_in[29] la_data_in[2] la_data_in[30] la_data_in[31] la_data_in[32]
+ la_data_in[33] la_data_in[34] la_data_in[35] la_data_in[36] la_data_in[37] la_data_in[38]
+ la_data_in[39] la_data_in[3] la_data_in[40] la_data_in[41] la_data_in[42] la_data_in[43]
+ la_data_in[44] la_data_in[45] la_data_in[46] la_data_in[47] la_data_in[48] la_data_in[49]
+ la_data_in[4] la_data_in[50] la_data_in[51] la_data_in[52] la_data_in[53] la_data_in[54]
+ la_data_in[55] la_data_in[56] la_data_in[57] la_data_in[58] la_data_in[59] la_data_in[5]
+ la_data_in[60] la_data_in[61] la_data_in[62] la_data_in[63] la_data_in[64] la_data_in[65]
+ la_data_in[66] la_data_in[67] la_data_in[68] la_data_in[69] la_data_in[6] la_data_in[70]
+ la_data_in[71] la_data_in[72] la_data_in[73] la_data_in[74] la_data_in[75] la_data_in[76]
+ la_data_in[77] la_data_in[78] la_data_in[79] la_data_in[7] la_data_in[80] la_data_in[81]
+ la_data_in[82] la_data_in[83] la_data_in[84] la_data_in[85] la_data_in[86] la_data_in[87]
+ la_data_in[88] la_data_in[89] la_data_in[8] la_data_in[90] la_data_in[91] la_data_in[92]
+ la_data_in[93] la_data_in[94] la_data_in[95] la_data_in[96] la_data_in[97] la_data_in[98]
+ la_data_in[99] la_data_in[9] la_data_out[0] la_data_out[100] la_data_out[101] la_data_out[102]
+ la_data_out[103] la_data_out[104] la_data_out[105] la_data_out[106] la_data_out[107]
+ la_data_out[108] la_data_out[109] la_data_out[10] la_data_out[110] la_data_out[111]
+ la_data_out[112] la_data_out[113] la_data_out[114] la_data_out[115] la_data_out[116]
+ la_data_out[117] la_data_out[118] la_data_out[119] la_data_out[11] la_data_out[120]
+ la_data_out[121] la_data_out[122] la_data_out[123] la_data_out[124] la_data_out[125]
+ la_data_out[126] la_data_out[127] la_data_out[12] la_data_out[13] la_data_out[14]
+ la_data_out[15] la_data_out[16] la_data_out[17] la_data_out[18] la_data_out[19]
+ la_data_out[1] la_data_out[20] la_data_out[21] la_data_out[22] la_data_out[23] la_data_out[24]
+ la_data_out[25] la_data_out[26] la_data_out[27] la_data_out[28] la_data_out[29]
+ la_data_out[2] la_data_out[30] la_data_out[31] la_data_out[32] la_data_out[33] la_data_out[34]
+ la_data_out[35] la_data_out[36] la_data_out[37] la_data_out[38] la_data_out[39]
+ la_data_out[3] la_data_out[40] la_data_out[41] la_data_out[42] la_data_out[43] la_data_out[44]
+ la_data_out[45] la_data_out[46] la_data_out[47] la_data_out[48] la_data_out[49]
+ la_data_out[4] la_data_out[50] la_data_out[51] la_data_out[52] la_data_out[53] la_data_out[54]
+ la_data_out[55] la_data_out[56] la_data_out[57] la_data_out[58] la_data_out[59]
+ la_data_out[5] la_data_out[60] la_data_out[61] la_data_out[62] la_data_out[63] la_data_out[64]
+ la_data_out[65] la_data_out[66] la_data_out[67] la_data_out[68] la_data_out[69]
+ la_data_out[6] la_data_out[70] la_data_out[71] la_data_out[72] la_data_out[73] la_data_out[74]
+ la_data_out[75] la_data_out[76] la_data_out[77] la_data_out[78] la_data_out[79]
+ la_data_out[7] la_data_out[80] la_data_out[81] la_data_out[82] la_data_out[83] la_data_out[84]
+ la_data_out[85] la_data_out[86] la_data_out[87] la_data_out[88] la_data_out[89]
+ la_data_out[8] la_data_out[90] la_data_out[91] la_data_out[92] la_data_out[93] la_data_out[94]
+ la_data_out[95] la_data_out[96] la_data_out[97] la_data_out[98] la_data_out[99]
+ la_data_out[9] la_oenb[0] la_oenb[100] la_oenb[101] la_oenb[102] la_oenb[103] la_oenb[104]
+ la_oenb[105] la_oenb[106] la_oenb[107] la_oenb[108] la_oenb[109] la_oenb[10] la_oenb[110]
+ la_oenb[111] la_oenb[112] la_oenb[113] la_oenb[114] la_oenb[115] la_oenb[116] la_oenb[117]
+ la_oenb[118] la_oenb[119] la_oenb[11] la_oenb[120] la_oenb[121] la_oenb[122] la_oenb[123]
+ la_oenb[124] la_oenb[125] la_oenb[126] la_oenb[127] la_oenb[12] la_oenb[13] la_oenb[14]
+ la_oenb[15] la_oenb[16] la_oenb[17] la_oenb[18] la_oenb[19] la_oenb[1] la_oenb[20]
+ la_oenb[21] la_oenb[22] la_oenb[23] la_oenb[24] la_oenb[25] la_oenb[26] la_oenb[27]
+ la_oenb[28] la_oenb[29] la_oenb[2] la_oenb[30] la_oenb[31] la_oenb[32] la_oenb[33]
+ la_oenb[34] la_oenb[35] la_oenb[36] la_oenb[37] la_oenb[38] la_oenb[39] la_oenb[3]
+ la_oenb[40] la_oenb[41] la_oenb[42] la_oenb[43] la_oenb[44] la_oenb[45] la_oenb[46]
+ la_oenb[47] la_oenb[48] la_oenb[49] la_oenb[4] la_oenb[50] la_oenb[51] la_oenb[52]
+ la_oenb[53] la_oenb[54] la_oenb[55] la_oenb[56] la_oenb[57] la_oenb[58] la_oenb[59]
+ la_oenb[5] la_oenb[60] la_oenb[61] la_oenb[62] la_oenb[63] la_oenb[64] la_oenb[65]
+ la_oenb[66] la_oenb[67] la_oenb[68] la_oenb[69] la_oenb[6] la_oenb[70] la_oenb[71]
+ la_oenb[72] la_oenb[73] la_oenb[74] la_oenb[75] la_oenb[76] la_oenb[77] la_oenb[78]
+ la_oenb[79] la_oenb[7] la_oenb[80] la_oenb[81] la_oenb[82] la_oenb[83] la_oenb[84]
+ la_oenb[85] la_oenb[86] la_oenb[87] la_oenb[88] la_oenb[89] la_oenb[8] la_oenb[90]
+ la_oenb[91] la_oenb[92] la_oenb[93] la_oenb[94] la_oenb[95] la_oenb[96] la_oenb[97]
+ la_oenb[98] la_oenb[99] la_oenb[9] user_clock2 user_irq[0] user_irq[1] user_irq[2]
+ vccd1 vccd2 vdda1 vdda2 vssa1 vssa2 vssd1 vssd2 wb_clk_i wb_rst_i wbs_ack_o wbs_adr_i[0]
+ wbs_adr_i[10] wbs_adr_i[11] wbs_adr_i[12] wbs_adr_i[13] wbs_adr_i[14] wbs_adr_i[15]
+ wbs_adr_i[16] wbs_adr_i[17] wbs_adr_i[18] wbs_adr_i[19] wbs_adr_i[1] wbs_adr_i[20]
+ wbs_adr_i[21] wbs_adr_i[22] wbs_adr_i[23] wbs_adr_i[24] wbs_adr_i[25] wbs_adr_i[26]
+ wbs_adr_i[27] wbs_adr_i[28] wbs_adr_i[29] wbs_adr_i[2] wbs_adr_i[30] wbs_adr_i[31]
+ wbs_adr_i[3] wbs_adr_i[4] wbs_adr_i[5] wbs_adr_i[6] wbs_adr_i[7] wbs_adr_i[8] wbs_adr_i[9]
+ wbs_cyc_i wbs_dat_i[0] wbs_dat_i[10] wbs_dat_i[11] wbs_dat_i[12] wbs_dat_i[13] wbs_dat_i[14]
+ wbs_dat_i[15] wbs_dat_i[16] wbs_dat_i[17] wbs_dat_i[18] wbs_dat_i[19] wbs_dat_i[1]
+ wbs_dat_i[20] wbs_dat_i[21] wbs_dat_i[22] wbs_dat_i[23] wbs_dat_i[24] wbs_dat_i[25]
+ wbs_dat_i[26] wbs_dat_i[27] wbs_dat_i[28] wbs_dat_i[29] wbs_dat_i[2] wbs_dat_i[30]
+ wbs_dat_i[31] wbs_dat_i[3] wbs_dat_i[4] wbs_dat_i[5] wbs_dat_i[6] wbs_dat_i[7] wbs_dat_i[8]
+ wbs_dat_i[9] wbs_dat_o[0] wbs_dat_o[10] wbs_dat_o[11] wbs_dat_o[12] wbs_dat_o[13]
+ wbs_dat_o[14] wbs_dat_o[15] wbs_dat_o[16] wbs_dat_o[17] wbs_dat_o[18] wbs_dat_o[19]
+ wbs_dat_o[1] wbs_dat_o[20] wbs_dat_o[21] wbs_dat_o[22] wbs_dat_o[23] wbs_dat_o[24]
+ wbs_dat_o[25] wbs_dat_o[26] wbs_dat_o[27] wbs_dat_o[28] wbs_dat_o[29] wbs_dat_o[2]
+ wbs_dat_o[30] wbs_dat_o[31] wbs_dat_o[3] wbs_dat_o[4] wbs_dat_o[5] wbs_dat_o[6]
+ wbs_dat_o[7] wbs_dat_o[8] wbs_dat_o[9] wbs_sel_i[0] wbs_sel_i[1] wbs_sel_i[2] wbs_sel_i[3]
+ wbs_stb_i wbs_we_i
C0 ro_div_new_0/ro_complete_0/a5 ro_div_new_0/ro_complete_0/cbank_1/switch_0/vin 0.09fF
C1 ro_div_new_0/ro_complete_0/cbank_0/switch_4/vin ro_div_new_0/ro_complete_0/cbank_0/v 1.30fF
C2 ro_div_new_0/divider_0/tspc_1/Z3 ro_div_new_0/divider_0/tspc_1/Q 0.05fF
C3 ro_div_new_0/divider_0/prescaler_0/tspc_0/Z3 ro_div_new_0/divider_0/clk 0.45fF
C4 ro_complete_0/a5 ro_complete_0/cbank_2/v 0.08fF
C5 divbuf_4/a_492_n240# divbuf_4/OUT 0.00fF
C6 divbuf_5/OUT3 divbuf_5/OUT4 5.16fF
C7 divbuf_5/OUT2 divbuf_5/OUT5 0.02fF
C8 ro_div_new_0/ro_complete_0/a2 ro_div_new_0/ro_complete_0/cbank_1/switch_3/vin 0.09fF
C9 ro_complete_0/cbank_1/switch_5/vin ro_complete_0/cbank_1/v 1.30fF
C10 ro_div_new_0/divider_0/prescaler_0/tspc_0/a_740_n680# ro_div_new_0/divider_0/prescaler_0/tspc_0/a_630_n680# 0.19fF
C11 ro_complete_0/a2 ro_complete_0/cbank_2/switch_2/vin 0.14fF
C12 ro_div_new_0/divider_0/mc2 ro_div_new_0/divider_0/nor_1/A 0.04fF
C13 ro_div_new_0/divider_0/nor_1/B ro_div_new_0/divider_0/tspc_1/a_630_n680# 0.35fF
C14 ro_div_new_0/divider_0/tspc_2/Z2 ro_div_new_0/divider_0/tspc_2/Z4 0.36fF
C15 ro_div_new_0/divider_0/tspc_2/Z3 ro_div_new_0/divider_0/Out 0.05fF
C16 ro_div_new_0/divider_0/prescaler_0/tspc_0/Z2 ro_div_new_0/divider_0/prescaler_0/tspc_0/a_630_n680# 0.01fF
C17 ro_div_new_0/ro_complete_0/a3 ro_div_new_0/ro_complete_0/cbank_2/switch_2/vin 0.09fF
C18 divbuf_1/OUT2 divbuf_1/OUT5 0.02fF
C19 divbuf_2/a_492_n240# divbuf_2/OUT 0.00fF
C20 ro_div_new_0/divider_0/and_0/A ro_div_new_0/divider_0/and_0/B 0.18fF
C21 ro_div_new_0/ro_complete_0/cbank_2/switch_1/vin ro_div_new_0/ro_complete_0/cbank_2/v 1.30fF
C22 ro_div_new_0/divider_0/prescaler_0/tspc_0/D ro_div_new_0/divider_0/prescaler_0/nand_0/z1 0.24fF
C23 ro_div_new_0/divider_0/prescaler_0/tspc_1/Z2 ro_div_new_0/divider_0/prescaler_0/Out 0.19fF
C24 ro_div_new_0/ro_complete_0/cbank_2/v ro_div_new_0/divider_0/clk 1.36fF
C25 divbuf_2/OUT5 divbuf_2/IN 0.00fF
C26 ro_complete_0/a0 ro_complete_0/cbank_1/switch_5/vin 0.09fF
C27 ro_div_new_0/ro_complete_0/cbank_0/switch_3/vin ro_div_new_0/ro_complete_0/cbank_0/switch_4/vin 0.20fF
C28 ro_complete_0/cbank_1/switch_1/vin ro_complete_0/cbank_1/switch_2/vin 0.20fF
C29 ro_div_new_0/divider_0/prescaler_0/tspc_0/D ro_div_new_0/divider_0/clk 0.26fF
C30 divbuf_3/a_492_n240# divbuf_3/OUT5 0.01fF
C31 ro_complete_0/cbank_2/switch_4/vin ro_complete_0/cbank_2/v 1.30fF
C32 divbuf_7/OUT2 divbuf_7/OUT 0.06fF
C33 divbuf_7/OUT3 divbuf_7/OUT5 0.01fF
C34 ro_div_new_0/ro_complete_0/cbank_1/switch_2/vin ro_div_new_0/divider_0/clk 1.30fF
C35 ro_complete_0/a2 ro_complete_0/cbank_1/switch_3/vin 0.09fF
C36 ro_div_new_0/divider_0/tspc_0/Z3 ro_div_new_0/divider_0/tspc_0/Z4 0.65fF
C37 divbuf_5/OUT4 divbuf_5/OUT5 20.26fF
C38 divbuf_5/OUT3 divbuf_5/OUT 0.26fF
C39 ro_div_new_0/ro_complete_0/cbank_0/switch_0/vin ro_div_new_0/ro_complete_0/a4 0.12fF
C40 ro_div_new_0/ro_complete_0/a2 ro_div_new_0/ro_complete_0/cbank_0/switch_3/vin 0.09fF
C41 ro_div_new_0/divider_0/prescaler_0/tspc_0/a_630_n680# ro_div_new_0/divider_0/mc2 0.33fF
C42 ro_div_new_0/divider_0/tspc_0/Z3 ro_div_new_0/divider_0/tspc_0/a_630_n680# 0.05fF
C43 divbuf_1/OUT4 divbuf_1/OUT5 20.26fF
C44 ro_div_new_0/divider_0/tspc_1/a_630_n680# ro_div_new_0/divider_0/tspc_0/Q 0.01fF
C45 ro_complete_0/cbank_0/v ro_complete_0/cbank_2/v 0.04fF
C46 ro_div_new_0/ro_complete_0/cbank_1/switch_1/vin ro_div_new_0/ro_complete_0/cbank_1/switch_2/vin 0.20fF
C47 ro_div_new_0/divider_0/nor_0/Z1 ro_div_new_0/divider_0/and_0/B 0.78fF
C48 io_clamp_high[0] io_analog[4] 0.53fF
C49 ro_div_new_0/ro_complete_0/cbank_0/switch_5/vin ro_div_new_0/ro_complete_0/a0 0.09fF
C50 ro_div_new_0/divider_0/prescaler_0/tspc_2/Z1 ro_div_new_0/divider_0/prescaler_0/tspc_2/Z3 0.06fF
C51 ro_complete_0/a3 ro_complete_0/cbank_2/switch_2/vin 0.09fF
C52 ro_div_new_0/divider_0/prescaler_0/tspc_0/a_630_n680# ro_div_new_0/divider_0/prescaler_0/tspc_0/Z4 0.12fF
C53 ro_div_new_0/divider_0/nor_1/A ro_div_new_0/divider_0/prescaler_0/Out 0.15fF
C54 ro_div_new_0/divider_0/and_0/OUT ro_div_new_0/divider_0/prescaler_0/tspc_0/Q 0.04fF
C55 ro_div_new_0/divider_0/prescaler_0/tspc_1/Z3 ro_div_new_0/divider_0/clk 0.45fF
C56 ro_complete_0/a0 ro_complete_0/cbank_1/v 0.05fF
C57 divbuf_6/a_492_n240# divbuf_6/OUT 0.00fF
C58 ro_div_new_0/ro_complete_0/cbank_0/switch_1/vin ro_div_new_0/ro_complete_0/a3 0.13fF
C59 ro_complete_0/a2 ro_complete_0/cbank_0/switch_2/vin 0.14fF
C60 ro_div_new_0/divider_0/prescaler_0/tspc_0/Z3 ro_div_new_0/divider_0/prescaler_0/tspc_0/Q 0.05fF
C61 ro_div_new_0/divider_0/nor_1/B ro_div_new_0/divider_0/nor_1/A 1.21fF
C62 ro_div_new_0/divider_0/tspc_2/a_630_n680# ro_div_new_0/divider_0/nor_0/B 0.35fF
C63 divbuf_3/OUT2 divbuf_3/OUT3 1.37fF
C64 divbuf_7/OUT4 divbuf_7/OUT 1.11fF
C65 ro_div_new_0/divider_0/tspc_1/Z2 ro_div_new_0/divider_0/tspc_1/a_630_n680# 0.01fF
C66 divbuf_2/a_492_n240# divbuf_2/OUT5 0.01fF
C67 divbuf_4/OUT2 divbuf_4/OUT3 1.37fF
C68 ro_complete_0/cbank_1/switch_3/vin ro_complete_0/cbank_1/switch_4/vin 0.20fF
C69 ro_div_new_0/ro_complete_0/a0 ro_div_new_0/ro_complete_0/cbank_2/switch_4/vin 0.13fF
C70 ro_div_new_0/divider_0/nor_1/B ro_div_new_0/divider_0/tspc_0/Q 0.22fF
C71 ro_div_new_0/divider_0/prescaler_0/m1_2700_2190# ro_div_new_0/divider_0/prescaler_0/Out 0.11fF
C72 divbuf_5/OUT5 divbuf_5/OUT 43.38fF
C73 ro_div_new_0/ro_complete_0/a2 ro_div_new_0/ro_complete_0/cbank_2/switch_3/vin 0.09fF
C74 ro_complete_0/cbank_2/switch_3/vin ro_complete_0/cbank_2/v 1.30fF
C75 ro_div_new_0/divider_0/tspc_0/Z2 ro_div_new_0/divider_0/prescaler_0/Out 0.11fF
C76 ro_div_new_0/divider_0/prescaler_0/tspc_2/Z3 ro_div_new_0/divider_0/clk 0.64fF
C77 divbuf_7/a_492_n240# divbuf_7/IN 0.13fF
C78 divbuf_0/OUT divbuf_0/a_492_n240# 0.00fF
C79 ro_div_new_0/divider_0/prescaler_0/tspc_0/Z1 ro_div_new_0/divider_0/prescaler_0/tspc_0/Z2 1.07fF
C80 ro_complete_0/cbank_0/switch_5/vin ro_complete_0/a0 0.09fF
C81 ro_div_new_0/divider_0/prescaler_0/tspc_1/Z3 ro_div_new_0/divider_0/prescaler_0/tspc_1/Z4 0.65fF
C82 ro_div_new_0/ro_complete_0/cbank_1/switch_1/vin ro_div_new_0/divider_0/clk 1.30fF
C83 ro_complete_0/cbank_2/switch_5/vin ro_complete_0/cbank_2/v 1.30fF
C84 ro_div_new_0/divider_0/tspc_0/Z1 ro_div_new_0/divider_0/tspc_0/Z3 0.06fF
C85 ro_div_new_0/ro_complete_0/a2 ro_div_new_0/ro_complete_0/cbank_2/v 0.05fF
C86 ro_div_new_0/divider_0/tspc_1/a_630_n680# ro_div_new_0/divider_0/tspc_1/Z4 0.12fF
C87 ro_div_new_0/divider_0/prescaler_0/tspc_2/Z1 ro_div_new_0/divider_0/prescaler_0/tspc_2/Z4 0.00fF
C88 ro_div_new_0/divider_0/prescaler_0/tspc_1/Z3 ro_div_new_0/divider_0/prescaler_0/tspc_1/Q 0.21fF
C89 ro_div_new_0/divider_0/nor_1/Z1 ro_div_new_0/divider_0/and_0/A 0.80fF
C90 ro_div_new_0/divider_0/and_0/B ro_div_new_0/divider_0/and_0/Z1 0.07fF
C91 divbuf_5/a_492_n240# divbuf_5/OUT2 0.42fF
C92 ro_div_new_0/ro_complete_0/cbank_0/switch_0/vin ro_div_new_0/ro_complete_0/cbank_0/switch_1/vin 0.19fF
C93 ro_complete_0/cbank_0/switch_3/vin ro_complete_0/a1 0.14fF
C94 ro_div_new_0/divider_0/nor_1/A ro_div_new_0/divider_0/tspc_0/Q 0.55fF
C95 ro_div_new_0/divider_0/prescaler_0/tspc_1/Z4 ro_div_new_0/divider_0/clk 0.12fF
C96 ro_div_new_0/divider_0/mc2 ro_div_new_0/divider_0/and_0/B 0.20fF
C97 divbuf_2/OUT3 divbuf_2/OUT 0.26fF
C98 divbuf_6/IN divbuf_6/OUT5 0.00fF
C99 divbuf_0/OUT divbuf_0/OUT4 1.11fF
C100 divbuf_0/a_492_n240# divbuf_0/OUT5 0.01fF
C101 ro_div_new_0/divider_0/prescaler_0/m1_2700_2190# ro_div_new_0/divider_0/nor_1/A 0.01fF
C102 ro_div_new_0/divider_0/nor_1/B ro_div_new_0/divider_0/tspc_1/Z2 0.30fF
C103 ro_div_new_0/divider_0/prescaler_0/tspc_1/a_630_n680# ro_div_new_0/divider_0/prescaler_0/tspc_1/Z2 0.01fF
C104 ro_div_new_0/divider_0/tspc_2/a_630_n680# ro_div_new_0/divider_0/tspc_2/Z2 0.01fF
C105 ro_div_new_0/divider_0/prescaler_0/tspc_1/Q ro_div_new_0/divider_0/clk 0.60fF
C106 divbuf_3/OUT3 divbuf_3/OUT4 5.16fF
C107 divbuf_3/OUT2 divbuf_3/OUT5 0.02fF
C108 divbuf_0/a_492_n240# divbuf_0/OUT2 0.42fF
C109 ro_div_new_0/divider_0/tspc_1/Q ro_div_new_0/divider_0/tspc_1/a_630_n680# 0.04fF
C110 ro_div_new_0/divider_0/nor_1/A ro_div_new_0/divider_0/tspc_0/Z2 0.23fF
C111 ro_div_new_0/ro_complete_0/cbank_1/switch_4/vin ro_div_new_0/divider_0/clk 1.30fF
C112 ro_complete_0/a3 ro_complete_0/cbank_0/switch_2/vin 0.09fF
C113 ro_div_new_0/divider_0/and_0/out1 ro_div_new_0/divider_0/and_0/A 0.01fF
C114 divbuf_4/OUT3 divbuf_4/OUT4 5.16fF
C115 divbuf_4/OUT2 divbuf_4/OUT5 0.02fF
C116 ro_div_new_0/divider_0/prescaler_0/tspc_2/Z3 ro_div_new_0/divider_0/prescaler_0/tspc_1/Q 0.13fF
C117 ro_complete_0/cbank_2/switch_1/vin ro_complete_0/cbank_2/switch_2/vin 0.20fF
C118 ro_div_new_0/divider_0/prescaler_0/tspc_0/a_740_n680# ro_div_new_0/divider_0/prescaler_0/tspc_0/Z3 0.33fF
C119 ro_div_new_0/ro_complete_0/a2 ro_div_new_0/ro_complete_0/cbank_0/switch_2/vin 0.14fF
C120 ro_div_new_0/ro_complete_0/cbank_0/switch_1/vin ro_div_new_0/ro_complete_0/a4 0.09fF
C121 ro_div_new_0/ro_complete_0/cbank_0/switch_0/vin ro_div_new_0/ro_complete_0/a5 0.09fF
C122 ro_div_new_0/divider_0/prescaler_0/tspc_0/Z2 ro_div_new_0/divider_0/and_0/OUT 0.05fF
C123 divbuf_1/OUT3 divbuf_1/OUT 0.26fF
C124 divbuf_0/OUT5 divbuf_0/OUT4 20.26fF
C125 ro_div_new_0/divider_0/prescaler_0/tspc_2/Z4 ro_div_new_0/divider_0/clk 0.12fF
C126 ro_complete_0/cbank_1/switch_1/vin ro_complete_0/cbank_1/switch_0/vin 0.19fF
C127 ro_div_new_0/divider_0/prescaler_0/tspc_0/Z2 ro_div_new_0/divider_0/prescaler_0/tspc_0/Z3 0.16fF
C128 ro_complete_0/cbank_0/switch_3/vin ro_complete_0/cbank_0/switch_2/vin 0.20fF
C129 ro_div_new_0/divider_0/nor_1/A ro_div_new_0/divider_0/tspc_1/Z2 0.15fF
C130 ro_div_new_0/divider_0/nor_1/B ro_div_new_0/divider_0/tspc_1/Z4 0.21fF
C131 divbuf_1/a_492_n240# divbuf_1/IN 0.13fF
C132 ro_complete_0/a3 ro_complete_0/cbank_1/switch_2/vin 0.09fF
C133 divbuf_4/a_492_n240# divbuf_4/IN 0.13fF
C134 ro_div_new_0/divider_0/prescaler_0/tspc_0/Z1 ro_div_new_0/divider_0/prescaler_0/tspc_0/Z4 0.00fF
C135 ro_complete_0/a5 ro_complete_0/cbank_0/switch_0/vin 0.09fF
C136 ro_div_new_0/divider_0/prescaler_0/tspc_2/Z3 ro_div_new_0/divider_0/prescaler_0/tspc_2/Z4 0.65fF
C137 ro_div_new_0/ro_complete_0/a0 ro_div_new_0/ro_complete_0/cbank_2/switch_5/vin 0.09fF
C138 ro_complete_0/a5 ro_complete_0/cbank_2/switch_0/vin 0.09fF
C139 ro_div_new_0/divider_0/tspc_1/Z2 ro_div_new_0/divider_0/tspc_0/Q 0.14fF
C140 divbuf_2/OUT5 divbuf_2/OUT 43.38fF
C141 divbuf_6/OUT2 divbuf_6/OUT 0.06fF
C142 divbuf_6/OUT3 divbuf_6/OUT5 0.01fF
C143 ro_complete_0/a2 ro_complete_0/cbank_2/switch_3/vin 0.09fF
C144 ro_div_new_0/ro_complete_0/cbank_0/switch_0/vin ro_div_new_0/ro_complete_0/cbank_0/v 1.30fF
C145 ro_div_new_0/divider_0/tspc_1/Z1 ro_div_new_0/divider_0/tspc_1/Z3 0.06fF
C146 ro_div_new_0/divider_0/nor_1/B ro_div_new_0/divider_0/tspc_1/Q 0.51fF
C147 ro_div_new_0/ro_complete_0/a2 ro_div_new_0/divider_0/clk 0.05fF
C148 ro_div_new_0/divider_0/and_0/OUT ro_div_new_0/divider_0/and_0/Z1 0.04fF
C149 ro_div_new_0/divider_0/tspc_2/a_630_n680# ro_div_new_0/divider_0/Out 0.04fF
C150 ro_div_new_0/divider_0/nor_0/B ro_div_new_0/divider_0/tspc_2/Z2 0.40fF
C151 ro_div_new_0/divider_0/prescaler_0/tspc_0/Q ro_div_new_0/divider_0/clk 0.05fF
C152 io_clamp_low[2] io_analog[6] 0.53fF
C153 divbuf_3/OUT4 divbuf_3/OUT5 20.26fF
C154 divbuf_3/OUT3 divbuf_3/OUT 0.26fF
C155 ro_div_new_0/divider_0/nor_1/A ro_div_new_0/divider_0/tspc_1/Z4 0.02fF
C156 ro_div_new_0/divider_0/mc2 ro_div_new_0/divider_0/and_0/OUT 0.05fF
C157 ro_div_new_0/ro_complete_0/cbank_1/switch_0/vin ro_div_new_0/divider_0/clk 1.45fF
C158 divbuf_2/a_492_n240# divbuf_2/OUT2 0.42fF
C159 divbuf_4/OUT4 divbuf_4/OUT5 20.26fF
C160 divbuf_4/OUT3 divbuf_4/OUT 0.26fF
C161 ro_div_new_0/divider_0/nor_1/B ro_div_new_0/divider_0/and_0/B 0.31fF
C162 ro_div_new_0/divider_0/tspc_0/a_630_n680# ro_div_new_0/divider_0/tspc_0/Z4 0.12fF
C163 ro_div_new_0/divider_0/prescaler_0/tspc_2/Z4 ro_div_new_0/divider_0/prescaler_0/tspc_1/Q 0.21fF
C164 ro_div_new_0/divider_0/prescaler_0/tspc_2/Z1 ro_div_new_0/divider_0/prescaler_0/tspc_2/D 0.03fF
C165 divbuf_2/OUT3 divbuf_2/OUT5 0.01fF
C166 divbuf_0/OUT divbuf_0/OUT5 43.38fF
C167 ro_div_new_0/divider_0/prescaler_0/m1_2700_2190# ro_div_new_0/divider_0/prescaler_0/tspc_1/a_630_n680# 0.19fF
C168 ro_div_new_0/divider_0/prescaler_0/tspc_0/Z2 ro_div_new_0/divider_0/prescaler_0/tspc_0/D 0.09fF
C169 ro_div_new_0/divider_0/tspc_1/Z4 ro_div_new_0/divider_0/tspc_0/Q 0.15fF
C170 divbuf_7/a_492_n240# divbuf_7/OUT5 0.01fF
C171 ro_div_new_0/ro_complete_0/cbank_1/switch_1/vin ro_div_new_0/ro_complete_0/cbank_1/switch_0/vin 0.19fF
C172 divbuf_0/OUT divbuf_0/OUT2 0.06fF
C173 ro_complete_0/cbank_1/switch_3/vin ro_complete_0/cbank_1/v 1.30fF
C174 ro_complete_0/cbank_0/switch_3/vin ro_complete_0/cbank_0/v 1.30fF
C175 ro_complete_0/a1 ro_complete_0/cbank_1/v 0.05fF
C176 divbuf_1/OUT2 divbuf_1/OUT3 1.37fF
C177 ro_div_new_0/divider_0/prescaler_0/tspc_0/Z3 ro_div_new_0/divider_0/prescaler_0/tspc_0/Z4 0.65fF
C178 ro_div_new_0/divider_0/nor_1/B ro_div_new_0/divider_0/tspc_2/Z4 0.02fF
C179 ro_div_new_0/ro_complete_0/cbank_1/switch_5/vin ro_div_new_0/divider_0/clk 1.30fF
C180 divbuf_5/a_492_n240# divbuf_5/OUT 0.00fF
C181 ro_complete_0/cbank_0/switch_4/vin ro_complete_0/cbank_0/switch_3/vin 0.20fF
C182 ro_div_new_0/ro_complete_0/a0 ro_div_new_0/ro_complete_0/cbank_2/v 0.05fF
C183 ro_div_new_0/divider_0/nor_1/A ro_div_new_0/divider_0/and_0/B 0.08fF
C184 ro_div_new_0/divider_0/prescaler_0/tspc_1/Q ro_div_new_0/divider_0/prescaler_0/tspc_0/Q 0.19fF
C185 ro_div_new_0/divider_0/prescaler_0/tspc_2/a_740_n680# ro_div_new_0/divider_0/clk 0.14fF
C186 divbuf_6/OUT4 divbuf_6/OUT 1.11fF
C187 ro_div_new_0/divider_0/prescaler_0/tspc_1/Z1 ro_div_new_0/divider_0/prescaler_0/tspc_1/Z3 0.06fF
C188 divbuf_0/OUT5 divbuf_0/OUT2 0.02fF
C189 ro_complete_0/a5 ro_complete_0/cbank_1/v 0.10fF
C190 ro_complete_0/a4 ro_complete_0/cbank_2/v 0.05fF
C191 ro_complete_0/cbank_0/switch_0/vin ro_complete_0/cbank_0/v 1.30fF
C192 ro_complete_0/cbank_0/switch_1/vin ro_complete_0/cbank_0/switch_2/vin 0.20fF
C193 ro_div_new_0/divider_0/tspc_2/Z1 ro_div_new_0/divider_0/tspc_2/Z3 0.06fF
C194 ro_div_new_0/divider_0/nor_0/B ro_div_new_0/divider_0/Out 0.22fF
C195 ro_div_new_0/divider_0/prescaler_0/tspc_2/D ro_div_new_0/divider_0/clk 0.29fF
C196 divbuf_3/OUT5 divbuf_3/OUT 43.38fF
C197 ro_complete_0/cbank_1/switch_1/vin ro_complete_0/a4 0.09fF
C198 ro_div_new_0/ro_complete_0/a4 ro_div_new_0/ro_complete_0/cbank_2/switch_0/vin 0.12fF
C199 ro_complete_0/a2 ro_complete_0/cbank_2/v 0.05fF
C200 ro_div_new_0/divider_0/tspc_1/Z2 ro_div_new_0/divider_0/tspc_1/Z4 0.36fF
C201 ro_div_new_0/divider_0/prescaler_0/tspc_1/Z2 ro_div_new_0/divider_0/and_0/OUT 0.06fF
C202 ro_div_new_0/divider_0/prescaler_0/tspc_2/a_740_n680# ro_div_new_0/divider_0/prescaler_0/tspc_2/Z3 0.33fF
C203 ro_div_new_0/divider_0/and_0/out1 ro_div_new_0/divider_0/and_0/Z1 0.36fF
C204 divbuf_4/OUT5 divbuf_4/OUT 43.38fF
C205 ro_div_new_0/ro_complete_0/a3 ro_div_new_0/ro_complete_0/cbank_2/v 0.05fF
C206 ro_div_new_0/divider_0/tspc_1/Q ro_div_new_0/divider_0/tspc_2/Z1 0.01fF
C207 ro_div_new_0/divider_0/mc2 ro_div_new_0/divider_0/and_0/out1 0.06fF
C208 ro_div_new_0/divider_0/prescaler_0/tspc_2/Z3 ro_div_new_0/divider_0/prescaler_0/tspc_2/D 0.05fF
C209 divbuf_6/a_492_n240# divbuf_6/IN 0.13fF
C210 divbuf_1/OUT4 divbuf_1/OUT3 5.16fF
C211 ro_div_new_0/divider_0/prescaler_0/tspc_0/a_740_n680# ro_div_new_0/divider_0/clk 0.01fF
C212 ro_div_new_0/divider_0/nor_0/Z1 ro_div_new_0/divider_0/nor_0/B 0.06fF
C213 divbuf_3/a_492_n240# divbuf_3/OUT2 0.42fF
C214 divbuf_7/OUT2 divbuf_7/OUT3 1.37fF
C215 ro_div_new_0/ro_complete_0/a3 ro_div_new_0/ro_complete_0/cbank_1/switch_2/vin 0.09fF
C216 ro_div_new_0/divider_0/tspc_0/Z1 ro_div_new_0/divider_0/tspc_0/Z4 0.00fF
C217 ro_div_new_0/divider_0/prescaler_0/tspc_1/Z4 ro_div_new_0/divider_0/prescaler_0/tspc_2/a_740_n680# 0.01fF
C218 ro_div_new_0/divider_0/prescaler_0/tspc_0/Z2 ro_div_new_0/divider_0/clk 0.11fF
C219 ro_div_new_0/divider_0/prescaler_0/tspc_0/Z4 ro_div_new_0/divider_0/prescaler_0/tspc_0/D 0.11fF
C220 divbuf_4/a_492_n240# divbuf_4/OUT5 0.01fF
C221 ro_div_new_0/ro_complete_0/cbank_1/switch_4/vin ro_div_new_0/ro_complete_0/cbank_1/switch_5/vin 0.20fF
C222 ro_div_new_0/divider_0/tspc_0/Z3 ro_div_new_0/divider_0/prescaler_0/Out 0.45fF
C223 ro_div_new_0/divider_0/prescaler_0/tspc_2/a_740_n680# ro_div_new_0/divider_0/prescaler_0/tspc_1/Q 0.15fF
C224 ro_div_new_0/divider_0/prescaler_0/tspc_2/Z2 ro_div_new_0/divider_0/and_0/OUT 0.06fF
C225 ro_complete_0/cbank_1/switch_2/vin ro_complete_0/cbank_1/v 1.30fF
C226 divbuf_5/IN divbuf_5/OUT5 0.00fF
C227 ro_div_new_0/divider_0/prescaler_0/tspc_1/Q ro_div_new_0/divider_0/prescaler_0/tspc_2/D 0.32fF
C228 ro_div_new_0/divider_0/prescaler_0/tspc_2/a_630_n680# ro_div_new_0/divider_0/clk 0.01fF
C229 divbuf_2/OUT2 divbuf_2/OUT 0.06fF
C230 ro_div_new_0/ro_complete_0/cbank_0/switch_3/vin ro_div_new_0/ro_complete_0/a1 0.14fF
C231 ro_div_new_0/ro_complete_0/cbank_0/switch_1/vin ro_div_new_0/ro_complete_0/cbank_0/v 1.30fF
C232 ro_div_new_0/ro_complete_0/cbank_0/switch_2/vin ro_div_new_0/ro_complete_0/a3 0.09fF
C233 ro_div_new_0/divider_0/prescaler_0/tspc_1/Z1 ro_div_new_0/divider_0/prescaler_0/tspc_1/Z4 0.00fF
C234 io_clamp_low[2] io_clamp_high[2] 0.53fF
C235 ro_complete_0/cbank_0/switch_1/vin ro_complete_0/cbank_0/v 1.30fF
C236 ro_div_new_0/divider_0/tspc_2/Z1 ro_div_new_0/divider_0/tspc_2/Z4 0.00fF
C237 io_clamp_high[1] io_analog[5] 0.53fF
C238 ro_div_new_0/ro_complete_0/cbank_0/switch_5/vin ro_div_new_0/ro_complete_0/cbank_0/v 1.30fF
C239 ro_div_new_0/divider_0/prescaler_0/tspc_2/a_630_n680# ro_div_new_0/divider_0/prescaler_0/tspc_2/Z3 0.05fF
C240 ro_div_new_0/divider_0/prescaler_0/tspc_2/a_740_n680# ro_div_new_0/divider_0/prescaler_0/tspc_2/Z4 0.08fF
C241 ro_div_new_0/ro_complete_0/a0 ro_div_new_0/divider_0/clk 0.05fF
C242 ro_div_new_0/divider_0/nor_1/Z1 ro_div_new_0/divider_0/nor_1/B 0.06fF
C243 ro_div_new_0/divider_0/tspc_1/Q ro_div_new_0/divider_0/tspc_2/Z3 0.45fF
C244 ro_div_new_0/divider_0/prescaler_0/tspc_2/Z4 ro_div_new_0/divider_0/prescaler_0/tspc_2/D 0.11fF
C245 divbuf_2/OUT3 divbuf_2/OUT2 1.37fF
C246 ro_complete_0/a0 ro_complete_0/cbank_2/switch_4/vin 0.13fF
C247 ro_complete_0/a3 ro_complete_0/cbank_2/v 0.05fF
C248 ro_complete_0/cbank_0/v ro_complete_0/cbank_1/v 1.27fF
C249 ro_div_new_0/divider_0/tspc_0/Z3 ro_div_new_0/divider_0/nor_1/A 0.38fF
C250 divbuf_7/OUT3 divbuf_7/OUT4 5.16fF
C251 divbuf_7/OUT2 divbuf_7/OUT5 0.02fF
C252 ro_div_new_0/ro_complete_0/a3 ro_div_new_0/ro_complete_0/cbank_2/switch_1/vin 0.13fF
C253 ro_div_new_0/ro_complete_0/cbank_2/switch_3/vin ro_div_new_0/ro_complete_0/cbank_2/switch_2/vin 0.20fF
C254 ro_div_new_0/divider_0/prescaler_0/m1_2700_2190# ro_div_new_0/divider_0/and_0/OUT 0.14fF
C255 ro_div_new_0/ro_complete_0/a3 ro_div_new_0/divider_0/clk 0.05fF
C256 divbuf_1/OUT3 divbuf_1/OUT5 0.01fF
C257 ro_div_new_0/ro_complete_0/a4 ro_div_new_0/ro_complete_0/cbank_2/v 0.05fF
C258 ro_div_new_0/divider_0/tspc_0/Z3 ro_div_new_0/divider_0/tspc_0/Q 0.05fF
C259 ro_div_new_0/divider_0/prescaler_0/tspc_0/Z4 ro_div_new_0/divider_0/clk 0.12fF
C260 ro_div_new_0/divider_0/mc2 ro_div_new_0/divider_0/nor_0/B 0.15fF
C261 divbuf_5/OUT2 divbuf_5/OUT 0.06fF
C262 divbuf_5/OUT3 divbuf_5/OUT5 0.01fF
C263 ro_div_new_0/ro_complete_0/cbank_2/switch_2/vin ro_div_new_0/ro_complete_0/cbank_2/v 1.30fF
C264 ro_div_new_0/divider_0/prescaler_0/tspc_0/Q ro_div_new_0/divider_0/prescaler_0/tspc_2/D 0.04fF
C265 ro_div_new_0/divider_0/prescaler_0/tspc_1/Q ro_div_new_0/divider_0/prescaler_0/nand_1/z1 0.22fF
C266 ro_div_new_0/ro_complete_0/cbank_2/switch_3/vin ro_div_new_0/ro_complete_0/a1 0.14fF
C267 ro_complete_0/cbank_0/switch_4/vin ro_complete_0/a0 0.13fF
C268 ro_complete_0/cbank_0/switch_5/vin ro_complete_0/cbank_0/v 1.30fF
C269 ro_div_new_0/divider_0/tspc_0/Z3 ro_div_new_0/divider_0/tspc_0/Z2 0.16fF
C270 ro_div_new_0/divider_0/prescaler_0/tspc_1/Z2 ro_div_new_0/divider_0/prescaler_0/tspc_1/Z3 0.16fF
C271 ro_div_new_0/divider_0/tspc_2/Z3 ro_div_new_0/divider_0/tspc_2/Z4 0.65fF
C272 io_clamp_low[0] io_analog[4] 0.53fF
C273 ro_div_new_0/divider_0/prescaler_0/tspc_0/Z3 ro_div_new_0/divider_0/prescaler_0/tspc_0/a_630_n680# 0.05fF
C274 ro_div_new_0/ro_complete_0/a5 ro_div_new_0/ro_complete_0/cbank_2/switch_0/vin 0.09fF
C275 ro_div_new_0/divider_0/prescaler_0/tspc_2/Z1 ro_div_new_0/divider_0/prescaler_0/tspc_2/Z2 1.07fF
C276 ro_div_new_0/divider_0/prescaler_0/tspc_2/a_630_n680# ro_div_new_0/divider_0/prescaler_0/tspc_2/Z4 0.12fF
C277 ro_complete_0/cbank_0/switch_4/vin ro_complete_0/cbank_0/switch_5/vin 0.20fF
C278 ro_div_new_0/divider_0/prescaler_0/tspc_0/a_740_n680# ro_div_new_0/divider_0/prescaler_0/tspc_0/Q 0.20fF
C279 ro_div_new_0/ro_complete_0/a1 ro_div_new_0/ro_complete_0/cbank_2/v 0.05fF