* SPICE3 file created from user_analog_project_wrapper.ext - technology: sky130A

.subckt user_analog_project_wrapper gpio_analog[0] gpio_analog[10] gpio_analog[11]
+ gpio_analog[12] gpio_analog[13] gpio_analog[14] gpio_analog[15] gpio_analog[16]
+ gpio_analog[17] gpio_analog[1] gpio_analog[2] gpio_analog[3] gpio_analog[4] gpio_analog[5]
+ gpio_analog[6] gpio_analog[7] gpio_analog[8] gpio_analog[9] gpio_noesd[0] gpio_noesd[10]
+ gpio_noesd[11] gpio_noesd[12] gpio_noesd[13] gpio_noesd[14] gpio_noesd[15] gpio_noesd[16]
+ gpio_noesd[17] gpio_noesd[1] gpio_noesd[2] gpio_noesd[3] gpio_noesd[4] gpio_noesd[5]
+ gpio_noesd[6] gpio_noesd[7] gpio_noesd[8] gpio_noesd[9] io_analog[0] io_analog[10]
+ io_analog[1] io_analog[2] io_analog[3] io_analog[4] io_analog[5] io_analog[6] io_analog[7]
+ io_analog[8] io_analog[9] io_clamp_high[0] io_clamp_high[1] io_clamp_high[2] io_clamp_low[0]
+ io_clamp_low[1] io_clamp_low[2] io_in[0] io_in[10] io_in[11] io_in[12] io_in[13]
+ io_in[14] io_in[15] io_in[16] io_in[17] io_in[18] io_in[19] io_in[1] io_in[20] io_in[21]
+ io_in[22] io_in[23] io_in[24] io_in[25] io_in[26] io_in[2] io_in[3] io_in[4] io_in[5]
+ io_in[6] io_in[7] io_in[8] io_in[9] io_in_3v3[0] io_in_3v3[10] io_in_3v3[11] io_in_3v3[12]
+ io_in_3v3[13] io_in_3v3[14] io_in_3v3[15] io_in_3v3[16] io_in_3v3[17] io_in_3v3[18]
+ io_in_3v3[19] io_in_3v3[1] io_in_3v3[20] io_in_3v3[21] io_in_3v3[22] io_in_3v3[23]
+ io_in_3v3[24] io_in_3v3[25] io_in_3v3[26] io_in_3v3[2] io_in_3v3[3] io_in_3v3[4]
+ io_in_3v3[5] io_in_3v3[6] io_in_3v3[7] io_in_3v3[8] io_in_3v3[9] io_oeb[0] io_oeb[10]
+ io_oeb[11] io_oeb[12] io_oeb[13] io_oeb[14] io_oeb[15] io_oeb[16] io_oeb[17] io_oeb[18]
+ io_oeb[19] io_oeb[1] io_oeb[20] io_oeb[21] io_oeb[22] io_oeb[23] io_oeb[24] io_oeb[25]
+ io_oeb[26] io_oeb[2] io_oeb[3] io_oeb[4] io_oeb[5] io_oeb[6] io_oeb[7] io_oeb[8]
+ io_oeb[9] io_out[0] io_out[10] io_out[11] io_out[12] io_out[13] io_out[14] io_out[15]
+ io_out[16] io_out[17] io_out[18] io_out[19] io_out[1] io_out[20] io_out[21] io_out[22]
+ io_out[23] io_out[24] io_out[25] io_out[26] io_out[2] io_out[3] io_out[4] io_out[5]
+ io_out[6] io_out[7] io_out[8] io_out[9] la_data_in[0] la_data_in[100] la_data_in[101]
+ la_data_in[102] la_data_in[103] la_data_in[104] la_data_in[105] la_data_in[106]
+ la_data_in[107] la_data_in[108] la_data_in[109] la_data_in[10] la_data_in[110] la_data_in[111]
+ la_data_in[112] la_data_in[113] la_data_in[114] la_data_in[115] la_data_in[116]
+ la_data_in[117] la_data_in[118] la_data_in[119] la_data_in[11] la_data_in[120] la_data_in[121]
+ la_data_in[122] la_data_in[123] la_data_in[124] la_data_in[125] la_data_in[126]
+ la_data_in[127] la_data_in[12] la_data_in[13] la_data_in[14] la_data_in[15] la_data_in[16]
+ la_data_in[17] la_data_in[18] la_data_in[19] la_data_in[1] la_data_in[20] la_data_in[21]
+ la_data_in[22] la_data_in[23] la_data_in[24] la_data_in[25] la_data_in[26] la_data_in[27]
+ la_data_in[28] la_data_in[29] la_data_in[2] la_data_in[30] la_data_in[31] la_data_in[32]
+ la_data_in[33] la_data_in[34] la_data_in[35] la_data_in[36] la_data_in[37] la_data_in[38]
+ la_data_in[39] la_data_in[3] la_data_in[40] la_data_in[41] la_data_in[42] la_data_in[43]
+ la_data_in[44] la_data_in[45] la_data_in[46] la_data_in[47] la_data_in[48] la_data_in[49]
+ la_data_in[4] la_data_in[50] la_data_in[51] la_data_in[52] la_data_in[53] la_data_in[54]
+ la_data_in[55] la_data_in[56] la_data_in[57] la_data_in[58] la_data_in[59] la_data_in[5]
+ la_data_in[60] la_data_in[61] la_data_in[62] la_data_in[63] la_data_in[64] la_data_in[65]
+ la_data_in[66] la_data_in[67] la_data_in[68] la_data_in[69] la_data_in[6] la_data_in[70]
+ la_data_in[71] la_data_in[72] la_data_in[73] la_data_in[74] la_data_in[75] la_data_in[76]
+ la_data_in[77] la_data_in[78] la_data_in[79] la_data_in[7] la_data_in[80] la_data_in[81]
+ la_data_in[82] la_data_in[83] la_data_in[84] la_data_in[85] la_data_in[86] la_data_in[87]
+ la_data_in[88] la_data_in[89] la_data_in[8] la_data_in[90] la_data_in[91] la_data_in[92]
+ la_data_in[93] la_data_in[94] la_data_in[95] la_data_in[96] la_data_in[97] la_data_in[98]
+ la_data_in[99] la_data_in[9] la_data_out[0] la_data_out[100] la_data_out[101] la_data_out[102]
+ la_data_out[103] la_data_out[104] la_data_out[105] la_data_out[106] la_data_out[107]
+ la_data_out[108] la_data_out[109] la_data_out[10] la_data_out[110] la_data_out[111]
+ la_data_out[112] la_data_out[113] la_data_out[114] la_data_out[115] la_data_out[116]
+ la_data_out[117] la_data_out[118] la_data_out[119] la_data_out[11] la_data_out[120]
+ la_data_out[121] la_data_out[122] la_data_out[123] la_data_out[124] la_data_out[125]
+ la_data_out[126] la_data_out[127] la_data_out[12] la_data_out[13] la_data_out[14]
+ la_data_out[15] la_data_out[16] la_data_out[17] la_data_out[18] la_data_out[19]
+ la_data_out[1] la_data_out[20] la_data_out[21] la_data_out[22] la_data_out[23] la_data_out[24]
+ la_data_out[25] la_data_out[26] la_data_out[27] la_data_out[28] la_data_out[29]
+ la_data_out[2] la_data_out[30] la_data_out[31] la_data_out[32] la_data_out[33] la_data_out[34]
+ la_data_out[35] la_data_out[36] la_data_out[37] la_data_out[38] la_data_out[39]
+ la_data_out[3] la_data_out[40] la_data_out[41] la_data_out[42] la_data_out[43] la_data_out[44]
+ la_data_out[45] la_data_out[46] la_data_out[47] la_data_out[48] la_data_out[49]
+ la_data_out[4] la_data_out[50] la_data_out[51] la_data_out[52] la_data_out[53] la_data_out[54]
+ la_data_out[55] la_data_out[56] la_data_out[57] la_data_out[58] la_data_out[59]
+ la_data_out[5] la_data_out[60] la_data_out[61] la_data_out[62] la_data_out[63] la_data_out[64]
+ la_data_out[65] la_data_out[66] la_data_out[67] la_data_out[68] la_data_out[69]
+ la_data_out[6] la_data_out[70] la_data_out[71] la_data_out[72] la_data_out[73] la_data_out[74]
+ la_data_out[75] la_data_out[76] la_data_out[77] la_data_out[78] la_data_out[79]
+ la_data_out[7] la_data_out[80] la_data_out[81] la_data_out[82] la_data_out[83] la_data_out[84]
+ la_data_out[85] la_data_out[86] la_data_out[87] la_data_out[88] la_data_out[89]
+ la_data_out[8] la_data_out[90] la_data_out[91] la_data_out[92] la_data_out[93] la_data_out[94]
+ la_data_out[95] la_data_out[96] la_data_out[97] la_data_out[98] la_data_out[99]
+ la_data_out[9] la_oenb[0] la_oenb[100] la_oenb[101] la_oenb[102] la_oenb[103] la_oenb[104]
+ la_oenb[105] la_oenb[106] la_oenb[107] la_oenb[108] la_oenb[109] la_oenb[10] la_oenb[110]
+ la_oenb[111] la_oenb[112] la_oenb[113] la_oenb[114] la_oenb[115] la_oenb[116] la_oenb[117]
+ la_oenb[118] la_oenb[119] la_oenb[11] la_oenb[120] la_oenb[121] la_oenb[122] la_oenb[123]
+ la_oenb[124] la_oenb[125] la_oenb[126] la_oenb[127] la_oenb[12] la_oenb[13] la_oenb[14]
+ la_oenb[15] la_oenb[16] la_oenb[17] la_oenb[18] la_oenb[19] la_oenb[1] la_oenb[20]
+ la_oenb[21] la_oenb[22] la_oenb[23] la_oenb[24] la_oenb[25] la_oenb[26] la_oenb[27]
+ la_oenb[28] la_oenb[29] la_oenb[2] la_oenb[30] la_oenb[31] la_oenb[32] la_oenb[33]
+ la_oenb[34] la_oenb[35] la_oenb[36] la_oenb[37] la_oenb[38] la_oenb[39] la_oenb[3]
+ la_oenb[40] la_oenb[41] la_oenb[42] la_oenb[43] la_oenb[44] la_oenb[45] la_oenb[46]
+ la_oenb[47] la_oenb[48] la_oenb[49] la_oenb[4] la_oenb[50] la_oenb[51] la_oenb[52]
+ la_oenb[53] la_oenb[54] la_oenb[55] la_oenb[56] la_oenb[57] la_oenb[58] la_oenb[59]
+ la_oenb[5] la_oenb[60] la_oenb[61] la_oenb[62] la_oenb[63] la_oenb[64] la_oenb[65]
+ la_oenb[66] la_oenb[67] la_oenb[68] la_oenb[69] la_oenb[6] la_oenb[70] la_oenb[71]
+ la_oenb[72] la_oenb[73] la_oenb[74] la_oenb[75] la_oenb[76] la_oenb[77] la_oenb[78]
+ la_oenb[79] la_oenb[7] la_oenb[80] la_oenb[81] la_oenb[82] la_oenb[83] la_oenb[84]
+ la_oenb[85] la_oenb[86] la_oenb[87] la_oenb[88] la_oenb[89] la_oenb[8] la_oenb[90]
+ la_oenb[91] la_oenb[92] la_oenb[93] la_oenb[94] la_oenb[95] la_oenb[96] la_oenb[97]
+ la_oenb[98] la_oenb[99] la_oenb[9] user_clock2 user_irq[0] user_irq[1] user_irq[2]
+ vccd1 vccd2 vdda1 vdda2 vssa1 vssa2 vssd1 vssd2 wb_clk_i wb_rst_i wbs_ack_o wbs_adr_i[0]
+ wbs_adr_i[10] wbs_adr_i[11] wbs_adr_i[12] wbs_adr_i[13] wbs_adr_i[14] wbs_adr_i[15]
+ wbs_adr_i[16] wbs_adr_i[17] wbs_adr_i[18] wbs_adr_i[19] wbs_adr_i[1] wbs_adr_i[20]
+ wbs_adr_i[21] wbs_adr_i[22] wbs_adr_i[23] wbs_adr_i[24] wbs_adr_i[25] wbs_adr_i[26]
+ wbs_adr_i[27] wbs_adr_i[28] wbs_adr_i[29] wbs_adr_i[2] wbs_adr_i[30] wbs_adr_i[31]
+ wbs_adr_i[3] wbs_adr_i[4] wbs_adr_i[5] wbs_adr_i[6] wbs_adr_i[7] wbs_adr_i[8] wbs_adr_i[9]
+ wbs_cyc_i wbs_dat_i[0] wbs_dat_i[10] wbs_dat_i[11] wbs_dat_i[12] wbs_dat_i[13] wbs_dat_i[14]
+ wbs_dat_i[15] wbs_dat_i[16] wbs_dat_i[17] wbs_dat_i[18] wbs_dat_i[19] wbs_dat_i[1]
+ wbs_dat_i[20] wbs_dat_i[21] wbs_dat_i[22] wbs_dat_i[23] wbs_dat_i[24] wbs_dat_i[25]
+ wbs_dat_i[26] wbs_dat_i[27] wbs_dat_i[28] wbs_dat_i[29] wbs_dat_i[2] wbs_dat_i[30]
+ wbs_dat_i[31] wbs_dat_i[3] wbs_dat_i[4] wbs_dat_i[5] wbs_dat_i[6] wbs_dat_i[7] wbs_dat_i[8]
+ wbs_dat_i[9] wbs_dat_o[0] wbs_dat_o[10] wbs_dat_o[11] wbs_dat_o[12] wbs_dat_o[13]
+ wbs_dat_o[14] wbs_dat_o[15] wbs_dat_o[16] wbs_dat_o[17] wbs_dat_o[18] wbs_dat_o[19]
+ wbs_dat_o[1] wbs_dat_o[20] wbs_dat_o[21] wbs_dat_o[22] wbs_dat_o[23] wbs_dat_o[24]
+ wbs_dat_o[25] wbs_dat_o[26] wbs_dat_o[27] wbs_dat_o[28] wbs_dat_o[29] wbs_dat_o[2]
+ wbs_dat_o[30] wbs_dat_o[31] wbs_dat_o[3] wbs_dat_o[4] wbs_dat_o[5] wbs_dat_o[6]
+ wbs_dat_o[7] wbs_dat_o[8] wbs_dat_o[9] wbs_sel_i[0] wbs_sel_i[1] wbs_sel_i[2] wbs_sel_i[3]
+ wbs_stb_i wbs_we_i
C0 divbuf_17/IN divbuf_17/OUT5 0.00fF
C1 ro_complete_1/cbank_0/v ro_complete_1/cbank_2/v 0.04fF
C2 pll_full_0/divider_0/tspc_2/Q pll_full_0/divider_0/tspc_1/Z4 0.15fF
C3 pll_full_0/divider_0/tspc_0/Z4 pll_full_0/divider_0/nor_1/B 0.22fF
C4 pll_full_0/divider_0/prescaler_0/tspc_2/a_630_n680# pll_full_0/divider_0/prescaler_0/tspc_2/Z4 0.12fF
C5 pll_full_0/divider_0/prescaler_0/tspc_2/Z1 pll_full_0/divider_0/prescaler_0/tspc_2/Z2 1.07fF
C6 divider_1/prescaler_0/m1_2700_2190# divider_1/nor_0/A 0.01fF
C7 divider_1/prescaler_0/Out divider_1/tspc_2/Z4 0.12fF
C8 divider_1/tspc_1/Z2 divider_1/tspc_1/Z3 0.16fF
C9 divider_1/prescaler_0/tspc_2/Z1 divider_1/prescaler_0/tspc_2/D 0.15fF
C10 divbuf_22/OUT2 divbuf_22/OUT 0.06fF
C11 divbuf_22/OUT3 divbuf_22/OUT5 0.01fF
C12 pd_0/tspc_r_0/Z3 pd_0/DOWN 0.03fF
C13 pll_full_0/divider_0/and_0/out1 pll_full_0/divider_0/and_0/Z1 0.36fF
C14 divider_2/mc2 divider_2/nor_0/B 0.06fF
C15 divider_2/tspc_2/Q divider_2/tspc_1/Z2 0.14fF
C16 pd_1/tspc_r_1/Z1 pd_1/tspc_r_1/Z2 0.71fF
C17 pd_1/REF pd_1/tspc_r_1/z5 0.04fF
C18 pd_1/tspc_r_1/Z3 pd_1/tspc_r_1/Z4 0.20fF
C19 pll_full_0/pd_0/DOWN pll_full_0/cp_0/a_1710_0# 0.04fF
C20 pll_full_0/pd_0/tspc_r_0/Qbar1 pll_full_0/pd_0/R 0.01fF
C21 divbuf_18/OUT5 divbuf_18/a_492_n240# 0.01fF
C22 divbuf_0/OUT5 divbuf_0/OUT2 0.02fF
C23 ro_complete_0/cbank_0/switch_1/vin ro_complete_0/a3 0.13fF
C24 divider_0/prescaler_0/tspc_0/Z3 divider_0/prescaler_0/tspc_0/Z4 0.65fF
C25 divbuf_2/OUT2 divbuf_2/OUT 0.06fF
C26 divider_0/tspc_1/Z4 divider_0/nor_0/A 0.02fF
C27 pll_full_0/ro_complete_0/cbank_1/switch_1/vin pll_full_0/ro_complete_0/cbank_1/switch_2/vin 0.20fF
C28 divider_1/tspc_0/Z1 divider_1/tspc_0/Z3 0.06fF
C29 divider_1/prescaler_0/tspc_0/Z1 divider_1/prescaler_0/tspc_0/Z4 0.00fF
C30 pll_full_0/divider_0/prescaler_0/tspc_0/a_740_n680# pll_full_0/divider_0/prescaler_0/tspc_0/Z3 0.33fF
C31 divbuf_21/a_492_n240# divbuf_21/OUT5 0.01fF
C32 pll_full_0/divider_0/tspc_2/Q pll_full_0/divider_0/tspc_2/Z3 0.05fF
C33 pll_full_0/divider_0/prescaler_0/tspc_1/Z2 pll_full_0/divider_0/clk 0.11fF
C34 pd_1/DIV pd_1/tspc_r_0/z5 0.04fF
C35 divbuf_18/OUT3 divbuf_18/OUT 0.26fF
C36 divider_2/tspc_2/Q divider_2/nor_0/A 0.55fF
C37 divider_2/nor_1/B divider_2/tspc_1/Q 0.22fF
C38 divbuf_24/OUT2 divbuf_24/OUT5 0.02fF
C39 divbuf_24/OUT3 divbuf_24/OUT4 5.16fF
C40 ro_complete_1/cbank_0/switch_0/vin ro_complete_1/a5 0.09fF
C41 ro_complete_0/cbank_1/switch_3/vin ro_complete_0/cbank_1/v 1.30fF
C42 divider_0/nor_0/B divider_0/tspc_0/Z4 0.02fF
C43 divider_0/prescaler_0/tspc_1/Z1 divider_0/prescaler_0/tspc_1/Z4 0.00fF
C44 ro_complete_1/a4 ro_complete_1/cbank_2/switch_0/vin 0.12fF
C45 divider_0/nor_0/A divider_0/tspc_2/Z3 0.38fF
C46 divider_0/tspc_2/a_630_n680# divider_0/tspc_2/Z4 0.12fF
C47 divider_0/tspc_2/Z1 divider_0/tspc_2/Z2 1.07fF
C48 pll_full_0/ro_complete_0/cbank_0/switch_5/vin pll_full_0/ro_complete_0/a0 0.09fF
C49 divider_1/prescaler_0/tspc_1/Z1 divider_1/prescaler_0/tspc_1/Z3 0.06fF
C50 pll_full_0/divider_0/prescaler_0/Out pll_full_0/divider_0/prescaler_0/tspc_1/Z3 0.11fF
C51 pll_full_0/divider_0/prescaler_0/m1_2700_2190# pll_full_0/divider_0/prescaler_0/tspc_1/a_630_n680# 0.19fF
C52 divbuf_7/OUT3 divbuf_7/OUT 0.26fF
C53 divbuf_7/OUT4 divbuf_7/OUT5 20.26fF
C54 divider_1/nor_0/A divider_1/tspc_2/Z1 0.03fF
C55 divider_1/tspc_2/a_630_n680# divider_1/tspc_2/Z3 0.05fF
C56 pll_full_0/pd_0/DIV pll_full_0/pd_0/tspc_r_0/Z1 0.17fF
C57 divbuf_19/OUT5 divbuf_19/a_492_n240# 0.01fF
C58 divider_2/mc2 divider_2/and_0/A 0.16fF
C59 divider_2/prescaler_0/tspc_2/Z2 divider_2/and_0/OUT 0.05fF
C60 divbuf_2/IN divbuf_2/OUT5 0.00fF
C61 ro_complete_0/a0 ro_complete_0/cbank_2/switch_4/vin 0.13fF
C62 ro_complete_0/cbank_0/v ro_complete_0/cbank_1/v 1.27fF
C63 divbuf_14/IN divbuf_14/a_492_n240# 0.13fF
C64 divider_0/mc2 divider_0/and_0/A 0.16fF
C65 divider_0/tspc_1/a_630_n680# divider_0/tspc_1/Z4 0.12fF
C66 divider_0/prescaler_0/tspc_2/Z1 divider_0/prescaler_0/tspc_2/Z3 0.06fF
C67 divbuf_3/OUT3 divbuf_3/OUT4 5.16fF
C68 ro_complete_1/a0 ro_complete_1/cbank_1/v 0.05fF
C69 divider_2/tspc_0/Z4 divider_2/tspc_0/a_630_n680# 0.12fF
C70 divider_1/tspc_1/a_630_n680# divider_1/tspc_1/Z3 0.05fF
C71 divbuf_10/a_492_n240# divbuf_10/OUT 0.00fF
C72 pll_full_0/divider_0/prescaler_0/tspc_0/Z2 pll_full_0/divider_0/prescaler_0/tspc_1/Q 0.06fF
C73 pll_full_0/ro_complete_0/cbank_1/switch_5/vin pll_full_0/divider_0/clk 1.46fF
C74 divider_2/tspc_2/Q divider_2/tspc_1/Z1 0.01fF
C75 divider_2/tspc_1/a_630_n680# divider_2/nor_0/B 0.35fF
C76 divider_1/and_0/A divider_1/and_0/B 0.18fF
C77 divbuf_9/OUT2 divbuf_9/OUT 0.06fF
C78 divbuf_9/OUT3 divbuf_9/OUT5 0.01fF
C79 pll_full_0/pd_0/DIV pll_full_0/pd_0/tspc_r_0/Z4 0.02fF
C80 divider_2/tspc_1/Z2 divider_2/nor_0/A 0.15fF
C81 divider_2/prescaler_0/tspc_1/Q divider_2/prescaler_0/tspc_0/D 0.32fF
C82 divider_2/prescaler_0/tspc_2/a_630_n680# divider_2/clk 0.01fF
C83 divider_2/nor_0/B divider_2/and_0/A 0.26fF
C84 ro_complete_0/a2 ro_complete_0/cbank_2/switch_3/vin 0.09fF
C85 pll_full_0/pd_0/tspc_r_1/Z1 pll_full_0/pd_0/tspc_r_1/Z2 0.71fF
C86 pll_full_0/pd_0/REF pll_full_0/pd_0/tspc_r_1/z5 0.04fF
C87 pll_full_0/pd_0/tspc_r_1/Z3 pll_full_0/pd_0/tspc_r_1/Z4 0.20fF
C88 divbuf_1/OUT divbuf_1/OUT4 1.11fF
C89 ro_complete_1/cbank_0/switch_3/vin ro_complete_1/cbank_0/switch_4/vin 0.20fF
C90 pll_full_0/divbuf_0/OUT5 pll_full_0/divbuf_0/OUT2 0.02fF
C91 pll_full_0/ro_complete_0/cbank_0/switch_1/vin pll_full_0/ro_complete_0/a3 0.13fF
C92 divider_0/and_0/OUT divider_0/prescaler_0/tspc_2/Q 0.04fF
C93 divider_0/prescaler_0/tspc_1/Z3 divider_0/clk 0.45fF
C94 divbuf_4/OUT2 divbuf_4/OUT3 1.37fF
C95 ro_complete_1/cbank_2/switch_0/vin ro_complete_1/cbank_2/v 1.45fF
C96 divider_1/prescaler_0/tspc_2/D divider_1/prescaler_0/nand_0/z1 0.24fF
C97 divbuf_20/OUT4 divbuf_20/OUT 1.11fF
C98 pll_full_0/divider_0/tspc_1/Z3 pll_full_0/divider_0/tspc_1/Z4 0.65fF
C99 pll_full_0/divider_0/prescaler_0/tspc_2/a_630_n680# pll_full_0/divider_0/prescaler_0/tspc_2/Q 0.04fF
C100 pll_full_0/divider_0/prescaler_0/Out pll_full_0/divider_0/clk 0.51fF
C101 divbuf_8/a_492_n240# divbuf_8/OUT5 0.01fF
C102 divider_2/prescaler_0/tspc_0/Z2 divider_2/prescaler_0/tspc_1/Q 0.06fF
C103 divider_2/prescaler_0/tspc_1/a_630_n680# divider_2/prescaler_0/tspc_1/Z4 0.12fF
C104 divider_2/prescaler_0/tspc_1/Z1 divider_2/prescaler_0/tspc_1/Z2 1.07fF
C105 pd_1/tspc_r_1/Qbar pd_1/and_pd_0/Out1 0.05fF
C106 divider_2/tspc_2/a_630_n680# divider_2/tspc_2/Z2 0.01fF
C107 divider_0/nor_1/Z1 divider_0/nor_1/B 0.06fF
C108 ro_complete_1/a2 ro_complete_1/cbank_1/switch_3/vin 0.09fF
C109 divbuf_0/OUT2 divbuf_0/a_492_n240# 0.42fF
C110 divbuf_2/a_492_n240# divbuf_2/OUT 0.00fF
C111 divbuf_14/OUT divbuf_14/OUT3 0.26fF
C112 divbuf_5/OUT2 divbuf_5/OUT3 1.37fF
C113 divider_2/prescaler_0/tspc_0/Z4 divider_2/prescaler_0/tspc_0/Z1 0.00fF
C114 divider_1/tspc_0/Z1 divider_1/tspc_0/Z4 0.00fF
C115 divider_1/prescaler_0/Out divider_1/prescaler_0/tspc_1/Z2 0.19fF
C116 pll_full_0/divider_0/tspc_0/a_630_n680# pll_full_0/divider_0/tspc_0/Z3 0.05fF
C117 divider_2/prescaler_0/tspc_0/a_630_n680# divider_2/prescaler_0/tspc_0/Z2 0.01fF
C118 divider_1/and_0/OUT divider_1/and_0/out1 0.31fF
C119 divider_1/prescaler_0/tspc_2/D divider_1/clk 0.26fF
C120 pll_full_0/divider_0/prescaler_0/tspc_2/Q pll_full_0/divider_0/prescaler_0/nand_1/z1 0.01fF
C121 pll_full_0/divider_0/prescaler_0/tspc_2/Z2 pll_full_0/divider_0/clk 0.11fF
C122 pd_0/tspc_r_1/Z1 pd_0/tspc_r_1/Z2 0.71fF
C123 pd_0/REF pd_0/tspc_r_1/z5 0.04fF
C124 pd_0/tspc_r_1/Z3 pd_0/tspc_r_1/Z4 0.20fF
C125 divider_2/tspc_1/Q divider_2/tspc_0/Z1 0.01fF
C126 divider_2/nor_0/B divider_2/tspc_1/Z3 0.38fF
C127 divider_2/tspc_1/Z1 divider_2/tspc_1/Z2 1.07fF
C128 divider_2/prescaler_0/tspc_2/a_740_n680# divider_2/prescaler_0/tspc_2/Z4 0.08fF
C129 divider_2/prescaler_0/tspc_2/a_630_n680# divider_2/prescaler_0/tspc_2/Z3 0.05fF
C130 divider_2/prescaler_0/tspc_1/a_630_n680# divider_2/prescaler_0/tspc_1/Q 0.04fF
C131 divbuf_12/OUT3 divbuf_12/OUT 0.26fF
C132 divbuf_12/OUT4 divbuf_12/OUT5 20.26fF
C133 pll_full_0/pd_0/DIV pll_full_0/divbuf_0/OUT4 1.11fF
C134 pll_full_0/pd_0/DOWN pll_full_0/pd_0/tspc_r_1/Qbar 0.02fF
C135 divbuf_14/OUT2 divbuf_14/a_492_n240# 0.42fF
C136 divider_0/prescaler_0/tspc_0/Z3 divider_0/prescaler_0/tspc_1/Q 0.13fF
C137 divider_0/prescaler_0/m1_2700_2190# divider_0/and_0/OUT 0.14fF
C138 ro_complete_0/a2 ro_complete_0/cbank_2/v 0.05fF
C139 divbuf_3/OUT2 divbuf_3/OUT 0.06fF
C140 ro_complete_1/a3 ro_complete_1/cbank_1/v 0.05fF
C141 pll_full_0/ro_complete_0/a0 pll_full_0/ro_complete_0/cbank_2/switch_4/vin 0.13fF
C142 divbuf_6/OUT5 divbuf_6/OUT 43.38fF
C143 divider_1/tspc_1/Q divider_1/tspc_1/Z3 0.05fF
C144 divider_1/tspc_1/Z1 divider_1/tspc_1/Z4 0.00fF
C145 divider_1/Out divider_1/nor_1/B 0.22fF
C146 pll_full_0/divider_0/prescaler_0/tspc_1/Z2 pll_full_0/divider_0/prescaler_0/tspc_1/Z4 0.36fF
C147 divbuf_11/a_492_n240# divbuf_11/OUT 0.00fF
C148 pll_full_0/divider_0/tspc_2/Z1 pll_full_0/divider_0/tspc_2/Z3 0.06fF
C149 cp_0/a_1710_n2840# cp_0/upbar 0.29fF
C150 pd_1/R pd_1/REF 0.61fF
C151 pll_full_0/pd_0/tspc_r_0/Z3 pll_full_0/pd_0/tspc_r_0/Z2 0.25fF
C152 divbuf_18/OUT5 divbuf_18/OUT 43.38fF
C153 ro_complete_0/cbank_0/switch_0/vin ro_complete_0/cbank_0/switch_1/vin 0.19fF
C154 pll_full_0/pd_0/R pll_full_0/pd_0/tspc_r_1/Qbar 0.03fF
C155 divider_0/prescaler_0/tspc_2/Z4 divider_0/prescaler_0/tspc_2/D 0.11fF
C156 divider_0/prescaler_0/tspc_0/Z4 divider_0/clk 0.12fF
C157 ro_complete_1/cbank_1/switch_3/vin ro_complete_1/cbank_1/switch_4/vin 0.20fF
C158 pll_full_0/ro_complete_0/a2 pll_full_0/ro_complete_0/cbank_2/switch_3/vin 0.09fF
C159 divider_2/tspc_0/Z4 divider_2/tspc_1/Q 0.15fF
C160 divbuf_20/a_492_n240# divbuf_20/IN 0.13fF
C161 divider_1/tspc_1/Z2 divider_1/tspc_1/Z4 0.36fF
C162 divider_1/prescaler_0/tspc_2/Z3 divider_1/prescaler_0/tspc_2/D 0.05fF
C163 divider_1/prescaler_0/tspc_0/Z3 divider_1/clk 0.64fF
C164 pll_full_0/divider_0/prescaler_0/tspc_1/Z2 pll_full_0/divider_0/prescaler_0/tspc_1/Q 0.06fF
C165 pll_full_0/divider_0/prescaler_0/tspc_2/Z2 pll_full_0/divider_0/prescaler_0/tspc_2/Z3 0.16fF
C166 pll_full_0/divider_0/prescaler_0/tspc_0/a_740_n680# pll_full_0/divider_0/clk 0.14fF
C167 pll_full_0/divider_0/nor_1/Z1 pll_full_0/divider_0/and_0/B 0.78fF
C168 pd_0/DIV pd_0/tspc_r_0/Z2 0.19fF
C169 pd_0/tspc_r_0/Z3 pd_0/tspc_r_0/Z1 0.09fF
C170 divider_2/tspc_1/a_630_n680# divider_2/tspc_1/Z3 0.05fF
C171 divider_2/tspc_0/Z3 divider_2/tspc_0/a_630_n680# 0.05fF
C172 divbuf_22/OUT4 divbuf_22/OUT 1.11fF
C173 cp_0/upbar cp_0/down 0.02fF
C174 pd_1/tspc_r_1/Qbar1 pd_1/tspc_r_1/z5 0.20fF
C175 pll_full_0/pd_0/tspc_r_0/Z3 pll_full_0/pd_0/tspc_r_0/z5 0.11fF
C176 divbuf_13/a_492_n240# divbuf_13/OUT5 0.01fF
C177 divider_0/tspc_0/a_630_n680# divider_0/Out 0.04fF
C178 pll_full_0/pd_0/tspc_r_1/Qbar pll_full_0/pd_0/and_pd_0/Out1 0.05fF
C179 divider_0/prescaler_0/tspc_2/Z3 divider_0/clk 0.45fF
C180 ro_complete_1/cbank_0/switch_3/vin ro_complete_1/a1 0.14fF
C181 ro_complete_1/cbank_0/switch_2/vin ro_complete_1/a3 0.09fF
C182 pll_full_0/divbuf_0/OUT2 pll_full_0/divbuf_0/a_492_n240# 0.42fF
C183 ro_complete_1/cbank_2/switch_5/vin ro_complete_1/cbank_2/v 1.30fF
C184 pll_full_0/divider_0/prescaler_0/tspc_0/a_740_n680# pll_full_0/divider_0/prescaler_0/tspc_0/Z4 0.08fF
C185 divider_1/prescaler_0/tspc_0/Z3 divider_1/prescaler_0/tspc_0/Z4 0.65fF
C186 divbuf_21/OUT2 divbuf_21/OUT3 1.37fF
C187 io_clamp_low[0] io_clamp_high[0] 0.53fF
C188 divider_2/prescaler_0/Out divider_2/tspc_2/Z3 0.45fF
C189 divider_1/tspc_1/Z4 divider_1/nor_0/A 0.02fF
C190 pd_0/R pd_0/tspc_r_1/Qbar 0.03fF
C191 pd_1/and_pd_0/Out1 pd_1/and_pd_0/Z1 0.18fF
C192 pll_full_0/pd_0/DOWN pll_full_0/pd_0/tspc_r_0/z5 0.03fF
C193 pll_full_0/pd_0/tspc_r_0/Z2 pll_full_0/pd_0/R 0.21fF
C194 divider_2/nor_0/A divider_2/and_0/B 0.08fF
C195 divbuf_24/OUT3 divbuf_24/OUT 0.26fF
C196 divbuf_24/OUT4 divbuf_24/OUT5 20.26fF
C197 divider_0/prescaler_0/tspc_1/Z3 divider_0/prescaler_0/tspc_1/Z4 0.65fF
C198 divider_0/nor_0/A divider_0/tspc_2/Z4 0.21fF
C199 divider_0/tspc_2/Z2 divider_0/tspc_2/Z3 0.16fF
C200 divbuf_3/IN divbuf_3/a_492_n240# 0.13fF
C201 divbuf_1/a_492_n240# divbuf_1/IN 0.13fF
C202 ro_complete_1/cbank_1/switch_1/vin ro_complete_1/cbank_1/v 1.30fF
C203 pll_full_0/ro_complete_0/a2 pll_full_0/ro_complete_0/cbank_2/v 0.05fF
C204 divbuf_6/a_492_n240# divbuf_6/OUT2 0.42fF
C205 pll_full_0/divider_0/tspc_1/Q pll_full_0/divider_0/tspc_0/Z3 0.45fF
C206 pll_full_0/divider_0/tspc_0/Z2 pll_full_0/divider_0/nor_1/B 0.40fF
C207 pll_full_0/divider_0/tspc_0/a_630_n680# pll_full_0/divider_0/tspc_0/Z4 0.12fF
C208 pll_full_0/divider_0/prescaler_0/Out pll_full_0/divider_0/prescaler_0/tspc_1/Z4 0.28fF
C209 divider_1/nor_0/B divider_1/tspc_0/Z4 0.02fF
C210 divider_1/prescaler_0/tspc_1/Z1 divider_1/prescaler_0/tspc_1/Z4 0.00fF
C211 divbuf_7/OUT5 divbuf_7/OUT 43.38fF
C212 divider_1/nor_0/A divider_1/tspc_2/Z3 0.38fF
C213 divider_1/tspc_2/a_630_n680# divider_1/tspc_2/Z4 0.12fF
C214 divider_1/tspc_2/Z1 divider_1/tspc_2/Z2 1.07fF
C215 pll_full_0/divider_0/and_0/OUT pll_full_0/divider_0/and_0/B 0.01fF
C216 pd_0/tspc_r_1/Qbar pd_0/and_pd_0/Out1 0.05fF
C217 divider_2/prescaler_0/tspc_2/Z2 divider_2/prescaler_0/tspc_2/D 0.09fF
C218 divider_2/prescaler_0/tspc_2/a_740_n680# divider_2/prescaler_0/tspc_2/Q 0.20fF
C219 divbuf_23/a_492_n240# divbuf_23/OUT 0.00fF
C220 pll_full_0/pd_0/DOWN pll_full_0/pd_0/and_pd_0/Z1 0.07fF
C221 divbuf_15/OUT divbuf_15/OUT2 0.06fF
C222 divbuf_15/OUT5 divbuf_15/OUT3 0.01fF
C223 divider_0/prescaler_0/Out divider_0/tspc_2/a_630_n680# 0.01fF
C224 divider_0/prescaler_0/tspc_2/Z1 divider_0/prescaler_0/tspc_2/Z4 0.00fF
C225 divider_0/prescaler_0/tspc_1/Z3 divider_0/prescaler_0/tspc_1/Q 0.21fF
C226 pll_full_0/ro_complete_0/cbank_0/switch_0/vin pll_full_0/ro_complete_0/cbank_0/switch_1/vin 0.19fF
C227 divbuf_25/OUT5 divbuf_25/OUT 43.38fF
C228 divider_0/and_0/B divider_0/and_0/Z1 0.07fF
C229 divbuf_3/OUT4 divbuf_3/OUT5 20.26fF
C230 divbuf_10/IN divbuf_10/OUT5 0.00fF
C231 pll_full_0/divider_0/prescaler_0/Out pll_full_0/divider_0/prescaler_0/tspc_1/Q 0.91fF
C232 pll_full_0/divider_0/prescaler_0/tspc_2/a_740_n680# pll_full_0/divider_0/prescaler_0/tspc_2/a_630_n680# 0.19fF
C233 divider_1/tspc_1/a_630_n680# divider_1/tspc_1/Z4 0.12fF
C234 divider_1/prescaler_0/tspc_2/Z1 divider_1/prescaler_0/tspc_2/Z3 0.06fF
C235 divbuf_22/a_492_n240# divbuf_22/IN 0.13fF
C236 cp_0/a_1710_n2840# cp_0/out 0.61fF
C237 pd_1/DOWN pd_1/and_pd_0/Out1 0.12fF
C238 pd_1/REF pd_1/tspc_r_1/Qbar1 0.12fF
C239 divider_2/prescaler_0/tspc_1/Q divider_2/prescaler_0/nand_1/z1 0.22fF
C240 divider_2/prescaler_0/tspc_2/Q divider_2/prescaler_0/tspc_0/D 0.04fF
C241 divbuf_9/OUT4 divbuf_9/OUT 1.11fF
C242 ro_complete_0/a2 ro_complete_0/cbank_0/switch_2/vin 0.14fF
C243 ro_complete_0/cbank_0/switch_1/vin ro_complete_0/a4 0.09fF
C244 ro_complete_0/cbank_0/switch_0/vin ro_complete_0/a5 0.09fF
C245 pll_full_0/cp_0/upbar pll_full_0/cp_0/down 0.02fF
C246 pll_full_0/pd_0/R pll_full_0/pd_0/and_pd_0/Z1 0.02fF
C247 pll_full_0/pd_0/tspc_r_1/Qbar1 pll_full_0/pd_0/tspc_r_1/z5 0.20fF
C248 divider_0/prescaler_0/tspc_0/a_740_n680# divider_0/prescaler_0/tspc_0/Z3 0.33fF
C249 divider_0/prescaler_0/tspc_1/Z4 divider_0/clk 0.12fF
C250 divbuf_1/OUT2 divbuf_1/OUT3 1.37fF
C251 pll_full_0/divbuf_1/OUT5 pll_full_0/divbuf_1/OUT2 0.02fF
C252 divbuf_4/OUT2 divbuf_4/OUT5 0.02fF
C253 divbuf_4/OUT3 divbuf_4/OUT4 5.16fF
C254 divider_1/and_0/OUT divider_1/prescaler_0/tspc_2/Q 0.04fF
C255 divider_1/prescaler_0/tspc_1/Z3 divider_1/clk 0.45fF
C256 divbuf_8/OUT2 divbuf_8/OUT3 1.37fF
C257 divbuf_18/OUT3 divbuf_18/OUT5 0.01fF
C258 divider_2/tspc_0/Z3 divider_2/tspc_1/Q 0.45fF
C259 divider_2/prescaler_0/tspc_1/Z2 divider_2/prescaler_0/tspc_1/Z3 0.16fF
C260 io_clamp_high[2] io_analog[6] 0.53fF
C261 divider_2/nor_0/A divider_2/tspc_2/Z2 0.23fF
C262 pll_full_0/pd_0/and_pd_0/Out1 pll_full_0/pd_0/and_pd_0/Z1 0.18fF
C263 divider_0/prescaler_0/tspc_1/Q divider_0/clk 0.60fF
C264 ro_complete_1/cbank_2/switch_3/vin ro_complete_1/cbank_2/switch_2/vin 0.20fF
C265 divider_1/nor_1/Z1 divider_1/nor_1/B 0.06fF
C266 divbuf_5/OUT2 divbuf_5/OUT5 0.02fF
C267 divbuf_5/OUT3 divbuf_5/OUT4 5.16fF
C268 pll_full_0/divider_0/prescaler_0/tspc_0/a_740_n680# pll_full_0/divider_0/prescaler_0/tspc_1/Z4 0.01fF
C269 divbuf_7/a_492_n240# divbuf_7/OUT2 0.42fF
C270 pll_full_0/divider_0/prescaler_0/tspc_0/D pll_full_0/divider_0/prescaler_0/nand_1/z1 0.21fF
C271 divbuf_17/OUT4 divbuf_17/OUT5 20.26fF
C272 divbuf_12/OUT5 divbuf_12/OUT 43.38fF
C273 pd_0/R pd_0/and_pd_0/Z1 0.02fF
C274 pd_0/tspc_r_1/Qbar1 pd_0/tspc_r_1/z5 0.20fF
C275 divider_2/nor_0/B divider_2/tspc_1/Z4 0.21fF
C276 divider_2/prescaler_0/tspc_2/a_630_n680# divider_2/prescaler_0/tspc_2/Z4 0.12fF
C277 divider_2/prescaler_0/tspc_2/Z1 divider_2/prescaler_0/tspc_2/Z2 1.07fF
C278 pll_full_0/pd_0/DIV pll_full_0/divbuf_0/OUT5 43.38fF
C279 divider_2/and_0/out1 divider_2/and_0/Z1 0.36fF
C280 pll_full_0/divbuf_1/OUT5 pll_full_0/divbuf_1/a_492_n240# 0.01fF
C281 divbuf_15/OUT5 divbuf_15/a_492_n240# 0.01fF
C282 divider_0/prescaler_0/tspc_0/Z4 divider_0/prescaler_0/tspc_1/Q 0.21fF
C283 divider_0/prescaler_0/m1_2700_2190# divider_0/prescaler_0/tspc_2/D 0.16fF
C284 divider_0/prescaler_0/tspc_0/Z1 divider_0/prescaler_0/tspc_0/D 0.03fF
C285 divbuf_25/OUT2 divbuf_25/OUT5 0.02fF
C286 ro_complete_1/a4 ro_complete_1/cbank_2/v 0.05fF
C287 ro_complete_1/cbank_2/switch_1/vin ro_complete_1/cbank_2/switch_0/vin 0.19fF
C288 divider_1/prescaler_0/tspc_0/Z3 divider_1/prescaler_0/tspc_1/Q 0.13fF
C289 divider_1/prescaler_0/m1_2700_2190# divider_1/and_0/OUT 0.14fF
C290 pll_full_0/divider_0/tspc_1/Q pll_full_0/divider_0/tspc_0/Z4 0.15fF
C291 pll_full_0/divider_0/prescaler_0/tspc_0/a_740_n680# pll_full_0/divider_0/prescaler_0/tspc_1/Q 0.15fF
C292 pll_full_0/ro_complete_0/a0 pll_full_0/divider_0/clk 0.11fF
C293 divbuf_11/IN divbuf_11/OUT5 0.00fF
C294 pll_full_0/divider_0/tspc_2/Z1 pll_full_0/divider_0/tspc_2/Z4 0.00fF
C295 divbuf_17/OUT3 divbuf_17/OUT5 0.01fF
C296 divbuf_9/a_492_n240# divbuf_9/IN 0.13fF
C297 pd_1/R pd_1/tspc_r_1/Qbar1 0.30fF
C298 pd_1/tspc_r_0/Z3 pd_1/tspc_r_0/Qbar1 0.38fF
C299 pd_0/and_pd_0/Out1 pd_0/and_pd_0/Z1 0.18fF
C300 pll_full_0/pd_0/tspc_r_0/Qbar1 pll_full_0/pd_0/tspc_r_0/Qbar 0.01fF
C301 divider_2/prescaler_0/tspc_1/Z2 divider_2/clk 0.11fF
C302 pll_full_0/pd_0/REF pll_full_0/pd_0/tspc_r_1/Qbar1 0.12fF
C303 ro_complete_0/a0 ro_complete_0/cbank_2/switch_5/vin 0.09fF
C304 pll_full_0/ro_complete_0/a2 pll_full_0/ro_complete_0/cbank_0/switch_2/vin 0.14fF
C305 pll_full_0/ro_complete_0/cbank_0/switch_1/vin pll_full_0/ro_complete_0/a4 0.09fF
C306 pll_full_0/ro_complete_0/cbank_0/switch_0/vin pll_full_0/ro_complete_0/a5 0.09fF
C307 divider_1/prescaler_0/tspc_2/Z4 divider_1/prescaler_0/tspc_2/D 0.11fF
C308 divider_1/prescaler_0/tspc_0/Z4 divider_1/clk 0.12fF
C309 pll_full_0/divider_0/prescaler_0/tspc_2/Z2 pll_full_0/divider_0/prescaler_0/tspc_2/Z4 0.36fF
C310 pd_0/DIV pd_0/R 0.51fF
C311 divbuf_17/OUT4 divbuf_17/OUT 1.11fF
C312 divider_2/mc2 divider_2/prescaler_0/tspc_2/a_630_n680# 0.33fF
C313 divider_2/tspc_1/a_630_n680# divider_2/tspc_1/Z4 0.12fF
C314 divider_2/prescaler_0/m1_2700_2190# divider_2/prescaler_0/tspc_1/a_630_n680# 0.19fF
C315 divbuf_13/OUT2 divbuf_13/OUT3 1.37fF
C316 pll_full_0/pd_0/tspc_r_0/Z1 pll_full_0/pd_0/tspc_r_0/Z2 0.71fF
C317 ro_complete_0/cbank_0/switch_0/vin ro_complete_0/cbank_0/v 1.30fF
C318 divider_0/mc2 divider_0/prescaler_0/tspc_2/a_630_n680# 0.33fF
C319 divbuf_2/OUT4 divbuf_2/OUT 1.11fF
C320 ro_complete_1/cbank_2/switch_3/vin ro_complete_1/a1 0.14fF
C321 divider_0/prescaler_0/tspc_2/Z4 divider_0/clk 0.12fF
C322 divider_1/tspc_0/a_630_n680# divider_1/Out 0.04fF
C323 divbuf_5/a_492_n240# divbuf_5/IN 0.13fF
C324 pll_full_0/divider_0/prescaler_0/tspc_0/a_630_n680# pll_full_0/divider_0/prescaler_0/tspc_0/Z2 0.01fF
C325 divider_2/prescaler_0/Out divider_2/tspc_2/Z4 0.12fF
C326 divider_1/prescaler_0/tspc_2/Z3 divider_1/clk 0.45fF
C327 divbuf_21/OUT2 divbuf_21/OUT5 0.02fF
C328 divbuf_21/OUT3 divbuf_21/OUT4 5.16fF
C329 pd_1/DIV pd_1/tspc_r_0/Qbar1 0.12fF
C330 pd_0/REF pd_0/tspc_r_1/Qbar1 0.12fF
C331 divbuf_12/a_492_n240# divbuf_12/OUT2 0.42fF
C332 divbuf_17/OUT3 divbuf_17/OUT 0.26fF
C333 divbuf_24/OUT5 divbuf_24/OUT 43.38fF
C334 filter_0/a_4216_n2998# filter_0/v 0.31fF
C335 pll_full_0/pd_0/tspc_r_0/Z2 pll_full_0/pd_0/tspc_r_0/Z4 0.14fF
C336 ro_complete_1/a5 ro_complete_1/cbank_2/switch_0/vin 0.09fF
C337 divider_0/tspc_2/Z2 divider_0/tspc_2/Z4 0.36fF
C338 divider_1/prescaler_0/tspc_1/Z3 divider_1/prescaler_0/tspc_1/Z4 0.65fF
C339 pll_full_0/ro_complete_0/a3 pll_full_0/divider_0/clk 0.11fF
C340 divider_1/nor_0/A divider_1/tspc_2/Z4 0.21fF
C341 divider_1/tspc_2/Z2 divider_1/tspc_2/Z3 0.16fF
C342 pd_1/DOWN pd_1/tspc_r_0/Z3 0.03fF